/*--------------------------------*- C++ -*----------------------------------*\
  =========                 |
  \\      /  F ield         | OpenFOAM: The Open Source CFD Toolbox
   \\    /   O peration     | Website:  https://openfoam.org
    \\  /    A nd           | Version:  7
     \\/     M anipulation  |
\*---------------------------------------------------------------------------*/
FoamFile
{
    version     2.0;
    format      ascii;
    class       polyBoundaryMesh;
    location    "constant/polyMesh";
    object      boundary;
}
// * * * * * * * * * * * * * * * * * * * * * * * * * * * * * * * * * * * * * //

10
(
    inlet
    {
        type            patch;
        nFaces          0;
        startFace       810;
    }
    outlet
    {
        type            patch;
        nFaces          0;
        startFace       810;
    }
    cylinder
    {
        type            wall;
        inGroups        List<word> 1(wall);
        nFaces          30;
        startFace       810;
    }
    top
    {
        type            symmetryPlane;
        inGroups        List<word> 1(symmetryPlane);
        nFaces          0;
        startFace       840;
    }
    bottom
    {
        type            symmetryPlane;
        inGroups        List<word> 1(symmetryPlane);
        nFaces          0;
        startFace       840;
    }
    defaultFaces
    {
        type            empty;
        inGroups        List<word> 1(empty);
        nFaces          866;
        startFace       840;
    }
    procBoundary13to6
    {
        type            processor;
        inGroups        List<word> 1(processor);
        nFaces          8;
        startFace       1706;
        matchTolerance  0.0001;
        transform       unknown;
        myProcNo        13;
        neighbProcNo    6;
    }
    procBoundary13to7
    {
        type            processor;
        inGroups        List<word> 1(processor);
        nFaces          38;
        startFace       1714;
        matchTolerance  0.0001;
        transform       unknown;
        myProcNo        13;
        neighbProcNo    7;
    }
    procBoundary13to12
    {
        type            processor;
        inGroups        List<word> 1(processor);
        nFaces          26;
        startFace       1752;
        matchTolerance  0.0001;
        transform       unknown;
        myProcNo        13;
        neighbProcNo    12;
    }
    procBoundary13to19
    {
        type            processor;
        inGroups        List<word> 1(processor);
        nFaces          10;
        startFace       1778;
        matchTolerance  0.0001;
        transform       unknown;
        myProcNo        13;
        neighbProcNo    19;
    }
)

// ************************************************************************* //
