/*--------------------------------*- C++ -*----------------------------------*\
  =========                 |
  \\      /  F ield         | OpenFOAM: The Open Source CFD Toolbox
   \\    /   O peration     | Website:  https://openfoam.org
    \\  /    A nd           | Version:  7
     \\/     M anipulation  |
\*---------------------------------------------------------------------------*/
FoamFile
{
    version     2.0;
    format      ascii;
    class       polyBoundaryMesh;
    location    "constant/polyMesh";
    object      boundary;
}
// * * * * * * * * * * * * * * * * * * * * * * * * * * * * * * * * * * * * * //

9
(
    inlet
    {
        type            patch;
        nFaces          0;
        startFace       620;
    }
    outlet
    {
        type            patch;
        nFaces          0;
        startFace       620;
    }
    wall
    {
        type            wall;
        inGroups        List<word> 1(wall);
        nFaces          71;
        startFace       620;
    }
    wedge1
    {
        type            wedge;
        inGroups        List<word> 1(wedge);
        nFaces          346;
        startFace       691;
    }
    wedge2
    {
        type            wedge;
        inGroups        List<word> 1(wedge);
        nFaces          346;
        startFace       1037;
    }
    axis
    {
        type            empty;
        inGroups        List<word> 1(empty);
        nFaces          0;
        startFace       1383;
    }
    procBoundary45to39
    {
        type            processor;
        inGroups        List<word> 1(processor);
        nFaces          67;
        startFace       1383;
        matchTolerance  0.0001;
        transform       unknown;
        myProcNo        45;
        neighbProcNo    39;
    }
    procBoundary45to40
    {
        type            processor;
        inGroups        List<word> 1(processor);
        nFaces          1;
        startFace       1450;
        matchTolerance  0.0001;
        transform       unknown;
        myProcNo        45;
        neighbProcNo    40;
    }
    procBoundary45to46
    {
        type            processor;
        inGroups        List<word> 1(processor);
        nFaces          5;
        startFace       1451;
        matchTolerance  0.0001;
        transform       unknown;
        myProcNo        45;
        neighbProcNo    46;
    }
)

// ************************************************************************* //
