/*--------------------------------*- C++ -*----------------------------------*\
  =========                 |
  \\      /  F ield         | OpenFOAM: The Open Source CFD Toolbox
   \\    /   O peration     | Website:  https://openfoam.org
    \\  /    A nd           | Version:  7
     \\/     M anipulation  |
\*---------------------------------------------------------------------------*/
FoamFile
{
    version     2.0;
    format      ascii;
    class       polyBoundaryMesh;
    location    "constant/polyMesh";
    object      boundary;
}
// * * * * * * * * * * * * * * * * * * * * * * * * * * * * * * * * * * * * * //

10
(
    inlet
    {
        type            patch;
        nFaces          0;
        startFace       816;
    }
    outlet
    {
        type            patch;
        nFaces          0;
        startFace       816;
    }
    cylinder
    {
        type            wall;
        inGroups        List<word> 1(wall);
        nFaces          20;
        startFace       816;
    }
    top
    {
        type            symmetryPlane;
        inGroups        List<word> 1(symmetryPlane);
        nFaces          0;
        startFace       836;
    }
    bottom
    {
        type            symmetryPlane;
        inGroups        List<word> 1(symmetryPlane);
        nFaces          0;
        startFace       836;
    }
    defaultFaces
    {
        type            empty;
        inGroups        List<word> 1(empty);
        nFaces          866;
        startFace       836;
    }
    procBoundary21to15
    {
        type            processor;
        inGroups        List<word> 1(processor);
        nFaces          26;
        startFace       1702;
        matchTolerance  0.0001;
        transform       unknown;
        myProcNo        21;
        neighbProcNo    15;
    }
    procBoundary21to16
    {
        type            processor;
        inGroups        List<word> 1(processor);
        nFaces          1;
        startFace       1728;
        matchTolerance  0.0001;
        transform       unknown;
        myProcNo        21;
        neighbProcNo    16;
    }
    procBoundary21to22
    {
        type            processor;
        inGroups        List<word> 1(processor);
        nFaces          16;
        startFace       1729;
        matchTolerance  0.0001;
        transform       unknown;
        myProcNo        21;
        neighbProcNo    22;
    }
    procBoundary21to27
    {
        type            processor;
        inGroups        List<word> 1(processor);
        nFaces          37;
        startFace       1745;
        matchTolerance  0.0001;
        transform       unknown;
        myProcNo        21;
        neighbProcNo    27;
    }
)

// ************************************************************************* //
