/*--------------------------------*- C++ -*----------------------------------*\
  =========                 |
  \\      /  F ield         | OpenFOAM: The Open Source CFD Toolbox
   \\    /   O peration     | Website:  https://openfoam.org
    \\  /    A nd           | Version:  7
     \\/     M anipulation  |
\*---------------------------------------------------------------------------*/
FoamFile
{
    version     2.0;
    format      ascii;
    class       polyBoundaryMesh;
    location    "constant/polyMesh";
    object      boundary;
}
// * * * * * * * * * * * * * * * * * * * * * * * * * * * * * * * * * * * * * //

10
(
    inlet
    {
        type            patch;
        nFaces          0;
        startFace       823;
    }
    outlet
    {
        type            patch;
        nFaces          20;
        startFace       823;
    }
    cylinder
    {
        type            wall;
        inGroups        List<word> 1(wall);
        nFaces          0;
        startFace       843;
    }
    top
    {
        type            symmetryPlane;
        inGroups        List<word> 1(symmetryPlane);
        nFaces          0;
        startFace       843;
    }
    bottom
    {
        type            symmetryPlane;
        inGroups        List<word> 1(symmetryPlane);
        nFaces          0;
        startFace       843;
    }
    defaultFaces
    {
        type            empty;
        inGroups        List<word> 1(empty);
        nFaces          866;
        startFace       843;
    }
    procBoundary23to17
    {
        type            processor;
        inGroups        List<word> 1(processor);
        nFaces          24;
        startFace       1709;
        matchTolerance  0.0001;
        transform       unknown;
        myProcNo        23;
        neighbProcNo    17;
    }
    procBoundary23to22
    {
        type            processor;
        inGroups        List<word> 1(processor);
        nFaces          16;
        startFace       1733;
        matchTolerance  0.0001;
        transform       unknown;
        myProcNo        23;
        neighbProcNo    22;
    }
    procBoundary23to28
    {
        type            processor;
        inGroups        List<word> 1(processor);
        nFaces          3;
        startFace       1749;
        matchTolerance  0.0001;
        transform       unknown;
        myProcNo        23;
        neighbProcNo    28;
    }
    procBoundary23to29
    {
        type            processor;
        inGroups        List<word> 1(processor);
        nFaces          23;
        startFace       1752;
        matchTolerance  0.0001;
        transform       unknown;
        myProcNo        23;
        neighbProcNo    29;
    }
)

// ************************************************************************* //
