/*--------------------------------*- C++ -*----------------------------------*\
  =========                 |
  \\      /  F ield         | OpenFOAM: The Open Source CFD Toolbox
   \\    /   O peration     | Website:  https://openfoam.org
    \\  /    A nd           | Version:  7
     \\/     M anipulation  |
\*---------------------------------------------------------------------------*/
FoamFile
{
    version     2.0;
    format      ascii;
    class       polyBoundaryMesh;
    location    "constant/polyMesh";
    object      boundary;
}
// * * * * * * * * * * * * * * * * * * * * * * * * * * * * * * * * * * * * * //

11
(
    inlet
    {
        type            patch;
        nFaces          0;
        startFace       806;
    }
    outlet
    {
        type            patch;
        nFaces          0;
        startFace       806;
    }
    cylinder
    {
        type            wall;
        inGroups        List<word> 1(wall);
        nFaces          1;
        startFace       806;
    }
    top
    {
        type            symmetryPlane;
        inGroups        List<word> 1(symmetryPlane);
        nFaces          0;
        startFace       807;
    }
    bottom
    {
        type            symmetryPlane;
        inGroups        List<word> 1(symmetryPlane);
        nFaces          0;
        startFace       807;
    }
    defaultFaces
    {
        type            empty;
        inGroups        List<word> 1(empty);
        nFaces          866;
        startFace       807;
    }
    procBoundary25to19
    {
        type            processor;
        inGroups        List<word> 1(processor);
        nFaces          38;
        startFace       1673;
        matchTolerance  0.0001;
        transform       unknown;
        myProcNo        25;
        neighbProcNo    19;
    }
    procBoundary25to20
    {
        type            processor;
        inGroups        List<word> 1(processor);
        nFaces          20;
        startFace       1711;
        matchTolerance  0.0001;
        transform       unknown;
        myProcNo        25;
        neighbProcNo    20;
    }
    procBoundary25to24
    {
        type            processor;
        inGroups        List<word> 1(processor);
        nFaces          24;
        startFace       1731;
        matchTolerance  0.0001;
        transform       unknown;
        myProcNo        25;
        neighbProcNo    24;
    }
    procBoundary25to26
    {
        type            processor;
        inGroups        List<word> 1(processor);
        nFaces          23;
        startFace       1755;
        matchTolerance  0.0001;
        transform       unknown;
        myProcNo        25;
        neighbProcNo    26;
    }
    procBoundary25to31
    {
        type            processor;
        inGroups        List<word> 1(processor);
        nFaces          14;
        startFace       1778;
        matchTolerance  0.0001;
        transform       unknown;
        myProcNo        25;
        neighbProcNo    31;
    }
)

// ************************************************************************* //
