/*--------------------------------*- C++ -*----------------------------------*\
  =========                 |
  \\      /  F ield         | OpenFOAM: The Open Source CFD Toolbox
   \\    /   O peration     | Website:  https://openfoam.org
    \\  /    A nd           | Version:  7
     \\/     M anipulation  |
\*---------------------------------------------------------------------------*/
FoamFile
{
    version     2.0;
    format      ascii;
    class       polyBoundaryMesh;
    location    "constant/polyMesh";
    object      boundary;
}
// * * * * * * * * * * * * * * * * * * * * * * * * * * * * * * * * * * * * * //

14
(
    inlet
    {
        type            patch;
        nFaces          7;
        startFace       112;
    }
    outlet
    {
        type            patch;
        nFaces          0;
        startFace       119;
    }
    walls
    {
        type            wall;
        inGroups        List<word> 1(wall);
        nFaces          0;
        startFace       119;
    }
    wedge1
    {
        type            wedge;
        inGroups        List<word> 1(wedge);
        nFaces          65;
        startFace       119;
    }
    wedge2
    {
        type            wedge;
        inGroups        List<word> 1(wedge);
        nFaces          65;
        startFace       184;
    }
    wedge3
    {
        type            wedge;
        inGroups        List<word> 1(wedge);
        nFaces          0;
        startFace       249;
    }
    wedge4
    {
        type            wedge;
        inGroups        List<word> 1(wedge);
        nFaces          0;
        startFace       249;
    }
    wedge5
    {
        type            wedge;
        inGroups        List<word> 1(wedge);
        nFaces          0;
        startFace       249;
    }
    wedge6
    {
        type            wedge;
        inGroups        List<word> 1(wedge);
        nFaces          0;
        startFace       249;
    }
    empty
    {
        type            patch;
        nFaces          0;
        startFace       249;
    }
    procBoundary24to18
    {
        type            processor;
        inGroups        List<word> 1(processor);
        nFaces          10;
        startFace       249;
        matchTolerance  0.0001;
        transform       unknown;
        myProcNo        24;
        neighbProcNo    18;
    }
    procBoundary24to25
    {
        type            processor;
        inGroups        List<word> 1(processor);
        nFaces          6;
        startFace       259;
        matchTolerance  0.0001;
        transform       unknown;
        myProcNo        24;
        neighbProcNo    25;
    }
    procBoundary24to30
    {
        type            processor;
        inGroups        List<word> 1(processor);
        nFaces          12;
        startFace       265;
        matchTolerance  0.0001;
        transform       unknown;
        myProcNo        24;
        neighbProcNo    30;
    }
    procBoundary24to31
    {
        type            processor;
        inGroups        List<word> 1(processor);
        nFaces          1;
        startFace       277;
        matchTolerance  0.0001;
        transform       unknown;
        myProcNo        24;
        neighbProcNo    31;
    }
)

// ************************************************************************* //
