/*--------------------------------*- C++ -*----------------------------------*\
  =========                 |
  \\      /  F ield         | OpenFOAM: The Open Source CFD Toolbox
   \\    /   O peration     | Website:  https://openfoam.org
    \\  /    A nd           | Version:  7
     \\/     M anipulation  |
\*---------------------------------------------------------------------------*/
FoamFile
{
    version     2.0;
    format      ascii;
    class       polyBoundaryMesh;
    location    "constant/polyMesh";
    object      boundary;
}
// * * * * * * * * * * * * * * * * * * * * * * * * * * * * * * * * * * * * * //

11
(
    inlet
    {
        type            patch;
        nFaces          0;
        startFace       814;
    }
    outlet
    {
        type            patch;
        nFaces          0;
        startFace       814;
    }
    cylinder
    {
        type            wall;
        inGroups        List<word> 1(wall);
        nFaces          0;
        startFace       814;
    }
    top
    {
        type            symmetryPlane;
        inGroups        List<word> 1(symmetryPlane);
        nFaces          0;
        startFace       814;
    }
    bottom
    {
        type            symmetryPlane;
        inGroups        List<word> 1(symmetryPlane);
        nFaces          12;
        startFace       814;
    }
    defaultFaces
    {
        type            empty;
        inGroups        List<word> 1(empty);
        nFaces          866;
        startFace       826;
    }
    procBoundary1to0
    {
        type            processor;
        inGroups        List<word> 1(processor);
        nFaces          31;
        startFace       1692;
        matchTolerance  0.0001;
        transform       unknown;
        myProcNo        1;
        neighbProcNo    0;
    }
    procBoundary1to2
    {
        type            processor;
        inGroups        List<word> 1(processor);
        nFaces          33;
        startFace       1723;
        matchTolerance  0.0001;
        transform       unknown;
        myProcNo        1;
        neighbProcNo    2;
    }
    procBoundary1to6
    {
        type            processor;
        inGroups        List<word> 1(processor);
        nFaces          8;
        startFace       1756;
        matchTolerance  0.0001;
        transform       unknown;
        myProcNo        1;
        neighbProcNo    6;
    }
    procBoundary1to7
    {
        type            processor;
        inGroups        List<word> 1(processor);
        nFaces          13;
        startFace       1764;
        matchTolerance  0.0001;
        transform       unknown;
        myProcNo        1;
        neighbProcNo    7;
    }
    procBoundary1to8
    {
        type            processor;
        inGroups        List<word> 1(processor);
        nFaces          7;
        startFace       1777;
        matchTolerance  0.0001;
        transform       unknown;
        myProcNo        1;
        neighbProcNo    8;
    }
)

// ************************************************************************* //
