/*--------------------------------*- C++ -*----------------------------------*\
  =========                 |
  \\      /  F ield         | OpenFOAM: The Open Source CFD Toolbox
   \\    /   O peration     | Website:  https://openfoam.org
    \\  /    A nd           | Version:  7
     \\/     M anipulation  |
\*---------------------------------------------------------------------------*/
FoamFile
{
    version     2.0;
    format      ascii;
    class       polyBoundaryMesh;
    location    "constant/polyMesh";
    object      boundary;
}
// * * * * * * * * * * * * * * * * * * * * * * * * * * * * * * * * * * * * * //

8
(
    inlet
    {
        type            patch;
        nFaces          0;
        startFace       23892;
    }
    outlet
    {
        type            patch;
        nFaces          48;
        startFace       23892;
    }
    bottom
    {
        type            symmetryPlane;
        inGroups        List<word> 1(symmetryPlane);
        nFaces          0;
        startFace       23940;
    }
    top
    {
        type            symmetryPlane;
        inGroups        List<word> 1(symmetryPlane);
        nFaces          252;
        startFace       23940;
    }
    obstacle
    {
        type            patch;
        nFaces          0;
        startFace       24192;
    }
    defaultFaces
    {
        type            empty;
        inGroups        List<word> 1(empty);
        nFaces          24192;
        startFace       24192;
    }
    procBoundary47to41
    {
        type            processor;
        inGroups        List<word> 1(processor);
        nFaces          252;
        startFace       48384;
        matchTolerance  0.0001;
        transform       unknown;
        myProcNo        47;
        neighbProcNo    41;
    }
    procBoundary47to46
    {
        type            processor;
        inGroups        List<word> 1(processor);
        nFaces          48;
        startFace       48636;
        matchTolerance  0.0001;
        transform       unknown;
        myProcNo        47;
        neighbProcNo    46;
    }
)

// ************************************************************************* //
