/*--------------------------------*- C++ -*----------------------------------*\
  =========                 |
  \\      /  F ield         | OpenFOAM: The Open Source CFD Toolbox
   \\    /   O peration     | Website:  https://openfoam.org
    \\  /    A nd           | Version:  7
     \\/     M anipulation  |
\*---------------------------------------------------------------------------*/
FoamFile
{
    version     2.0;
    format      ascii;
    class       polyBoundaryMesh;
    location    "constant/polyMesh";
    object      boundary;
}
// * * * * * * * * * * * * * * * * * * * * * * * * * * * * * * * * * * * * * //

9
(
    inlet
    {
        type            patch;
        nFaces          5;
        startFace       618;
    }
    outlet
    {
        type            patch;
        nFaces          0;
        startFace       623;
    }
    wall
    {
        type            wall;
        inGroups        List<word> 1(wall);
        nFaces          68;
        startFace       623;
    }
    wedge1
    {
        type            wedge;
        inGroups        List<word> 1(wedge);
        nFaces          346;
        startFace       691;
    }
    wedge2
    {
        type            wedge;
        inGroups        List<word> 1(wedge);
        nFaces          346;
        startFace       1037;
    }
    axis
    {
        type            empty;
        inGroups        List<word> 1(empty);
        nFaces          0;
        startFace       1383;
    }
    procBoundary42to36
    {
        type            processor;
        inGroups        List<word> 1(processor);
        nFaces          69;
        startFace       1383;
        matchTolerance  0.0001;
        transform       unknown;
        myProcNo        42;
        neighbProcNo    36;
    }
    procBoundary42to37
    {
        type            processor;
        inGroups        List<word> 1(processor);
        nFaces          1;
        startFace       1452;
        matchTolerance  0.0001;
        transform       unknown;
        myProcNo        42;
        neighbProcNo    37;
    }
    procBoundary42to43
    {
        type            processor;
        inGroups        List<word> 1(processor);
        nFaces          5;
        startFace       1453;
        matchTolerance  0.0001;
        transform       unknown;
        myProcNo        42;
        neighbProcNo    43;
    }
)

// ************************************************************************* //
