/*--------------------------------*- C++ -*----------------------------------*\
  =========                 |
  \\      /  F ield         | OpenFOAM: The Open Source CFD Toolbox
   \\    /   O peration     | Website:  https://openfoam.org
    \\  /    A nd           | Version:  7
     \\/     M anipulation  |
\*---------------------------------------------------------------------------*/
FoamFile
{
    version     2.0;
    format      ascii;
    class       polyBoundaryMesh;
    location    "constant/polyMesh";
    object      boundary;
}
// * * * * * * * * * * * * * * * * * * * * * * * * * * * * * * * * * * * * * //

12
(
    inlet
    {
        type            patch;
        nFaces          5;
        startFace       113;
    }
    outlet
    {
        type            patch;
        nFaces          0;
        startFace       118;
    }
    walls
    {
        type            wall;
        inGroups        List<word> 1(wall);
        nFaces          11;
        startFace       118;
    }
    wedge1
    {
        type            wedge;
        inGroups        List<word> 1(wedge);
        nFaces          65;
        startFace       129;
    }
    wedge2
    {
        type            wedge;
        inGroups        List<word> 1(wedge);
        nFaces          65;
        startFace       194;
    }
    wedge3
    {
        type            wedge;
        inGroups        List<word> 1(wedge);
        nFaces          0;
        startFace       259;
    }
    wedge4
    {
        type            wedge;
        inGroups        List<word> 1(wedge);
        nFaces          0;
        startFace       259;
    }
    wedge5
    {
        type            wedge;
        inGroups        List<word> 1(wedge);
        nFaces          0;
        startFace       259;
    }
    wedge6
    {
        type            wedge;
        inGroups        List<word> 1(wedge);
        nFaces          0;
        startFace       259;
    }
    empty
    {
        type            patch;
        nFaces          0;
        startFace       259;
    }
    procBoundary42to36
    {
        type            processor;
        inGroups        List<word> 1(processor);
        nFaces          12;
        startFace       259;
        matchTolerance  0.0001;
        transform       unknown;
        myProcNo        42;
        neighbProcNo    36;
    }
    procBoundary42to43
    {
        type            processor;
        inGroups        List<word> 1(processor);
        nFaces          6;
        startFace       271;
        matchTolerance  0.0001;
        transform       unknown;
        myProcNo        42;
        neighbProcNo    43;
    }
)

// ************************************************************************* //
