//Ben Juenger
//COE347 OF3

FoamFile
{
    version     2.0;
    format      ascii;
    class       dictionary;
    object      blockMeshDict;
}

convertToMeters 1.0;

vertices
(
  (0.000000000000000 0.000000000000000 0.000000000000000) // 0
  (5.000000000000000 0.000000000000000 0.000000000000000) // 1
  (5.500000000000000 0.000000000000000 0.000000000000000) // 2
  (10.500000000000000 0.000000000000000 0.000000000000000) // 3
  (0.000000000000000 0.249914331243889 0.006544237076968) // 4
  (5.000000000000000 0.249914331243889 0.006544237076968) // 5
  (5.500000000000000 0.249914331243889 0.006544237076968) // 6
  (10.500000000000000 0.249914331243889 0.006544237076968) // 7
  (0.000000000000000 0.249914331243889 -0.006544237076968) // 8
  (5.000000000000000 0.249914331243889 -0.006544237076968) // 9
  (5.500000000000000 0.249914331243889 -0.006544237076968) // 10
  (10.500000000000000 0.249914331243889 -0.006544237076968) // 11
  (0.000000000000000 0.499828662487779 0.013088474153937) // 12
  (5.000000000000000 0.499828662487779 0.013088474153937) // 13
  (5.500000000000000 0.499828662487779 0.013088474153937) // 14
  (10.500000000000000 0.499828662487779 0.013088474153937) // 15
  (0.000000000000000 0.499828662487779 -0.013088474153937) // 16
  (5.000000000000000 0.499828662487779 -0.013088474153937) // 17
  (5.500000000000000 0.499828662487779 -0.013088474153937) // 18
  (10.500000000000000 0.499828662487779 -0.013088474153937) // 19
);

blocks
(
  hex (0 1 1 0 5 6 10 9)  (20 25 1) simpleGrading (1.000000 1.000000 1.000000) // 0

  hex (1 2 2 1 6 7 11 10)  (25 25 1) simpleGrading (1.000000 1.000000 1.000000) // 1

  hex (2 4 4 2 7 8 12 11)  (20 25 1) simpleGrading (1.000000 1.000000 1.000000) // 2

  hex (5 6 10 9 13 14 18 17)  (20 25 1) simpleGrading (1.000000 1.000000 1.000000) // 3

  hex (7 8 12 11 15 16 20 19)  (25 25 1) simpleGrading (1.000000 1.000000 1.000000) // 4

);

edges
(
);

boundary
(
    inlet
    {
        type patch;
        faces
        (
            (0 5 9)
            (5 13 17 9)
        );
    }
    outlet
    {
        type patch;
        faces
        (
            (4 8 12)
	    (8 16 20 12)
        );
    }
    walls
  {
      type wall;
      faces
      (
         (13 14 18 17)
	 (6 7 11 10)
	 (15 16 20 19)
	 (6 14 18 10)
	 (7 15 19 11)

      );
    }
    wedges
     { 
           type wedge;
           faces  
           (
               (1 2 6 5)
	       (5 6 14 13)
               (2 3 7 6)
	       (3 4 8 7)
	       (7 8 16 15)
	       (1 2 10 9)
	       (9 10 18 17)	
	       (2 3 11 10)
	       (3 4 12 11)
	       (11 12 20 19)
           );
      }

);