/*--------------------------------*- C++ -*----------------------------------*\
  =========                 |
  \\      /  F ield         | OpenFOAM: The Open Source CFD Toolbox
   \\    /   O peration     | Website:  https://openfoam.org
    \\  /    A nd           | Version:  7
     \\/     M anipulation  |
\*---------------------------------------------------------------------------*/
FoamFile
{
    version     2.0;
    format      ascii;
    class       polyBoundaryMesh;
    location    "constant/polyMesh";
    object      boundary;
}
// * * * * * * * * * * * * * * * * * * * * * * * * * * * * * * * * * * * * * //

10
(
    inlet
    {
        type            patch;
        nFaces          0;
        startFace       615;
    }
    outlet
    {
        type            patch;
        nFaces          0;
        startFace       615;
    }
    wall
    {
        type            wall;
        inGroups        List<word> 1(wall);
        nFaces          6;
        startFace       615;
    }
    wedge1
    {
        type            wedge;
        inGroups        List<word> 1(wedge);
        nFaces          344;
        startFace       621;
    }
    wedge2
    {
        type            wedge;
        inGroups        List<word> 1(wedge);
        nFaces          344;
        startFace       965;
    }
    axis
    {
        type            empty;
        inGroups        List<word> 1(empty);
        nFaces          0;
        startFace       1309;
    }
    procBoundary26to20
    {
        type            processor;
        inGroups        List<word> 1(processor);
        nFaces          67;
        startFace       1309;
        matchTolerance  0.0001;
        transform       unknown;
        myProcNo        26;
        neighbProcNo    20;
    }
    procBoundary26to25
    {
        type            processor;
        inGroups        List<word> 1(processor);
        nFaces          5;
        startFace       1376;
        matchTolerance  0.0001;
        transform       unknown;
        myProcNo        26;
        neighbProcNo    25;
    }
    procBoundary26to31
    {
        type            processor;
        inGroups        List<word> 1(processor);
        nFaces          1;
        startFace       1381;
        matchTolerance  0.0001;
        transform       unknown;
        myProcNo        26;
        neighbProcNo    31;
    }
    procBoundary26to32
    {
        type            processor;
        inGroups        List<word> 1(processor);
        nFaces          67;
        startFace       1382;
        matchTolerance  0.0001;
        transform       unknown;
        myProcNo        26;
        neighbProcNo    32;
    }
)

// ************************************************************************* //
