/*--------------------------------*- C++ -*----------------------------------*\
  =========                 |
  \\      /  F ield         | OpenFOAM: The Open Source CFD Toolbox
   \\    /   O peration     | Website:  https://openfoam.org
    \\  /    A nd           | Version:  7
     \\/     M anipulation  |
\*---------------------------------------------------------------------------*/
FoamFile
{
    version     2.0;
    format      ascii;
    class       polyBoundaryMesh;
    location    "constant/polyMesh";
    object      boundary;
}
// * * * * * * * * * * * * * * * * * * * * * * * * * * * * * * * * * * * * * //

15
(
    inlet
    {
        type            patch;
        nFaces          0;
        startFace       112;
    }
    outlet
    {
        type            patch;
        nFaces          0;
        startFace       112;
    }
    walls
    {
        type            wall;
        inGroups        List<word> 1(wall);
        nFaces          0;
        startFace       112;
    }
    wedge1
    {
        type            wedge;
        inGroups        List<word> 1(wedge);
        nFaces          0;
        startFace       112;
    }
    wedge2
    {
        type            wedge;
        inGroups        List<word> 1(wedge);
        nFaces          0;
        startFace       112;
    }
    wedge3
    {
        type            wedge;
        inGroups        List<word> 1(wedge);
        nFaces          0;
        startFace       112;
    }
    wedge4
    {
        type            wedge;
        inGroups        List<word> 1(wedge);
        nFaces          0;
        startFace       112;
    }
    wedge5
    {
        type            wedge;
        inGroups        List<word> 1(wedge);
        nFaces          65;
        startFace       112;
    }
    wedge6
    {
        type            wedge;
        inGroups        List<word> 1(wedge);
        nFaces          65;
        startFace       177;
    }
    empty
    {
        type            patch;
        nFaces          0;
        startFace       242;
    }
    procBoundary28to22
    {
        type            processor;
        inGroups        List<word> 1(processor);
        nFaces          11;
        startFace       242;
        matchTolerance  0.0001;
        transform       unknown;
        myProcNo        28;
        neighbProcNo    22;
    }
    procBoundary28to29
    {
        type            processor;
        inGroups        List<word> 1(processor);
        nFaces          6;
        startFace       253;
        matchTolerance  0.0001;
        transform       unknown;
        myProcNo        28;
        neighbProcNo    29;
    }
    procBoundary28to34
    {
        type            processor;
        inGroups        List<word> 1(processor);
        nFaces          12;
        startFace       259;
        matchTolerance  0.0001;
        transform       unknown;
        myProcNo        28;
        neighbProcNo    34;
    }
    procBoundary28to35
    {
        type            processor;
        inGroups        List<word> 1(processor);
        nFaces          1;
        startFace       271;
        matchTolerance  0.0001;
        transform       unknown;
        myProcNo        28;
        neighbProcNo    35;
    }
    procBoundary28to39
    {
        type            processor;
        inGroups        List<word> 1(processor);
        nFaces          6;
        startFace       272;
        matchTolerance  0.0001;
        transform       unknown;
        myProcNo        28;
        neighbProcNo    39;
    }
)

// ************************************************************************* //
