/*--------------------------------*- C++ -*----------------------------------*\
  =========                 |
  \\      /  F ield         | OpenFOAM: The Open Source CFD Toolbox
   \\    /   O peration     | Website:  https://openfoam.org
    \\  /    A nd           | Version:  7
     \\/     M anipulation  |
\*---------------------------------------------------------------------------*/
FoamFile
{
    version     2.0;
    format      ascii;
    class       polyBoundaryMesh;
    location    "constant/polyMesh";
    object      boundary;
}
// * * * * * * * * * * * * * * * * * * * * * * * * * * * * * * * * * * * * * //

12
(
    inlet
    {
        type            patch;
        nFaces          0;
        startFace       816;
    }
    outlet
    {
        type            patch;
        nFaces          0;
        startFace       816;
    }
    cylinder
    {
        type            wall;
        inGroups        List<word> 1(wall);
        nFaces          0;
        startFace       816;
    }
    top
    {
        type            symmetryPlane;
        inGroups        List<word> 1(symmetryPlane);
        nFaces          0;
        startFace       816;
    }
    bottom
    {
        type            symmetryPlane;
        inGroups        List<word> 1(symmetryPlane);
        nFaces          0;
        startFace       816;
    }
    defaultFaces
    {
        type            empty;
        inGroups        List<word> 1(empty);
        nFaces          866;
        startFace       816;
    }
    procBoundary26to20
    {
        type            processor;
        inGroups        List<word> 1(processor);
        nFaces          28;
        startFace       1682;
        matchTolerance  0.0001;
        transform       unknown;
        myProcNo        26;
        neighbProcNo    20;
    }
    procBoundary26to25
    {
        type            processor;
        inGroups        List<word> 1(processor);
        nFaces          23;
        startFace       1710;
        matchTolerance  0.0001;
        transform       unknown;
        myProcNo        26;
        neighbProcNo    25;
    }
    procBoundary26to27
    {
        type            processor;
        inGroups        List<word> 1(processor);
        nFaces          17;
        startFace       1733;
        matchTolerance  0.0001;
        transform       unknown;
        myProcNo        26;
        neighbProcNo    27;
    }
    procBoundary26to31
    {
        type            processor;
        inGroups        List<word> 1(processor);
        nFaces          8;
        startFace       1750;
        matchTolerance  0.0001;
        transform       unknown;
        myProcNo        26;
        neighbProcNo    31;
    }
    procBoundary26to32
    {
        type            processor;
        inGroups        List<word> 1(processor);
        nFaces          15;
        startFace       1758;
        matchTolerance  0.0001;
        transform       unknown;
        myProcNo        26;
        neighbProcNo    32;
    }
    procBoundary26to33
    {
        type            processor;
        inGroups        List<word> 1(processor);
        nFaces          9;
        startFace       1773;
        matchTolerance  0.0001;
        transform       unknown;
        myProcNo        26;
        neighbProcNo    33;
    }
)

// ************************************************************************* //
