/*--------------------------------*- C++ -*----------------------------------*\
  =========                 |
  \\      /  F ield         | OpenFOAM: The Open Source CFD Toolbox
   \\    /   O peration     | Website:  https://openfoam.org
    \\  /    A nd           | Version:  7
     \\/     M anipulation  |
\*---------------------------------------------------------------------------*/
FoamFile
{
    version     2.0;
    format      ascii;
    class       polyBoundaryMesh;
    location    "constant/polyMesh";
    object      boundary;
}
// * * * * * * * * * * * * * * * * * * * * * * * * * * * * * * * * * * * * * //

12
(
    inlet
    {
        type            patch;
        nFaces          0;
        startFace       816;
    }
    outlet
    {
        type            patch;
        nFaces          0;
        startFace       816;
    }
    cylinder
    {
        type            wall;
        inGroups        List<word> 1(wall);
        nFaces          0;
        startFace       816;
    }
    top
    {
        type            symmetryPlane;
        inGroups        List<word> 1(symmetryPlane);
        nFaces          0;
        startFace       816;
    }
    bottom
    {
        type            symmetryPlane;
        inGroups        List<word> 1(symmetryPlane);
        nFaces          0;
        startFace       816;
    }
    defaultFaces
    {
        type            empty;
        inGroups        List<word> 1(empty);
        nFaces          866;
        startFace       816;
    }
    procBoundary16to9
    {
        type            processor;
        inGroups        List<word> 1(processor);
        nFaces          9;
        startFace       1682;
        matchTolerance  0.0001;
        transform       unknown;
        myProcNo        16;
        neighbProcNo    9;
    }
    procBoundary16to10
    {
        type            processor;
        inGroups        List<word> 1(processor);
        nFaces          25;
        startFace       1691;
        matchTolerance  0.0001;
        transform       unknown;
        myProcNo        16;
        neighbProcNo    10;
    }
    procBoundary16to15
    {
        type            processor;
        inGroups        List<word> 1(processor);
        nFaces          17;
        startFace       1716;
        matchTolerance  0.0001;
        transform       unknown;
        myProcNo        16;
        neighbProcNo    15;
    }
    procBoundary16to17
    {
        type            processor;
        inGroups        List<word> 1(processor);
        nFaces          15;
        startFace       1733;
        matchTolerance  0.0001;
        transform       unknown;
        myProcNo        16;
        neighbProcNo    17;
    }
    procBoundary16to21
    {
        type            processor;
        inGroups        List<word> 1(processor);
        nFaces          1;
        startFace       1748;
        matchTolerance  0.0001;
        transform       unknown;
        myProcNo        16;
        neighbProcNo    21;
    }
    procBoundary16to22
    {
        type            processor;
        inGroups        List<word> 1(processor);
        nFaces          33;
        startFace       1749;
        matchTolerance  0.0001;
        transform       unknown;
        myProcNo        16;
        neighbProcNo    22;
    }
)

// ************************************************************************* //
