/*--------------------------------*- C++ -*----------------------------------*\
  =========                 |
  \\      /  F ield         | OpenFOAM: The Open Source CFD Toolbox
   \\    /   O peration     | Website:  https://openfoam.org
    \\  /    A nd           | Version:  7
     \\/     M anipulation  |
\*---------------------------------------------------------------------------*/
FoamFile
{
    version     2.0;
    format      ascii;
    class       polyBoundaryMesh;
    location    "constant/polyMesh";
    object      boundary;
}
// * * * * * * * * * * * * * * * * * * * * * * * * * * * * * * * * * * * * * //

13
(
    inlet
    {
        type            patch;
        nFaces          0;
        startFace       804;
    }
    outlet
    {
        type            patch;
        nFaces          0;
        startFace       804;
    }
    cylinder
    {
        type            wall;
        inGroups        List<word> 1(wall);
        nFaces          3;
        startFace       804;
    }
    top
    {
        type            symmetryPlane;
        inGroups        List<word> 1(symmetryPlane);
        nFaces          0;
        startFace       807;
    }
    bottom
    {
        type            symmetryPlane;
        inGroups        List<word> 1(symmetryPlane);
        nFaces          0;
        startFace       807;
    }
    defaultFaces
    {
        type            empty;
        inGroups        List<word> 1(empty);
        nFaces          866;
        startFace       807;
    }
    procBoundary27to14
    {
        type            processor;
        inGroups        List<word> 1(processor);
        nFaces          1;
        startFace       1673;
        matchTolerance  0.0001;
        transform       unknown;
        myProcNo        27;
        neighbProcNo    14;
    }
    procBoundary27to20
    {
        type            processor;
        inGroups        List<word> 1(processor);
        nFaces          29;
        startFace       1674;
        matchTolerance  0.0001;
        transform       unknown;
        myProcNo        27;
        neighbProcNo    20;
    }
    procBoundary27to21
    {
        type            processor;
        inGroups        List<word> 1(processor);
        nFaces          37;
        startFace       1703;
        matchTolerance  0.0001;
        transform       unknown;
        myProcNo        27;
        neighbProcNo    21;
    }
    procBoundary27to22
    {
        type            processor;
        inGroups        List<word> 1(processor);
        nFaces          11;
        startFace       1740;
        matchTolerance  0.0001;
        transform       unknown;
        myProcNo        27;
        neighbProcNo    22;
    }
    procBoundary27to26
    {
        type            processor;
        inGroups        List<word> 1(processor);
        nFaces          17;
        startFace       1751;
        matchTolerance  0.0001;
        transform       unknown;
        myProcNo        27;
        neighbProcNo    26;
    }
    procBoundary27to28
    {
        type            processor;
        inGroups        List<word> 1(processor);
        nFaces          10;
        startFace       1768;
        matchTolerance  0.0001;
        transform       unknown;
        myProcNo        27;
        neighbProcNo    28;
    }
    procBoundary27to33
    {
        type            processor;
        inGroups        List<word> 1(processor);
        nFaces          16;
        startFace       1778;
        matchTolerance  0.0001;
        transform       unknown;
        myProcNo        27;
        neighbProcNo    33;
    }
)

// ************************************************************************* //
