/*--------------------------------*- C++ -*----------------------------------*\
  =========                 |
  \\      /  F ield         | OpenFOAM: The Open Source CFD Toolbox
   \\    /   O peration     | Website:  https://openfoam.org
    \\  /    A nd           | Version:  7
     \\/     M anipulation  |
\*---------------------------------------------------------------------------*/
FoamFile
{
    version     2.0;
    format      ascii;
    class       polyBoundaryMesh;
    location    "constant/polyMesh";
    object      boundary;
}
// * * * * * * * * * * * * * * * * * * * * * * * * * * * * * * * * * * * * * //

11
(
    inlet
    {
        type            patch;
        nFaces          0;
        startFace       818;
    }
    outlet
    {
        type            patch;
        nFaces          0;
        startFace       818;
    }
    cylinder
    {
        type            wall;
        inGroups        List<word> 1(wall);
        nFaces          0;
        startFace       818;
    }
    top
    {
        type            symmetryPlane;
        inGroups        List<word> 1(symmetryPlane);
        nFaces          11;
        startFace       818;
    }
    bottom
    {
        type            symmetryPlane;
        inGroups        List<word> 1(symmetryPlane);
        nFaces          0;
        startFace       829;
    }
    defaultFaces
    {
        type            empty;
        inGroups        List<word> 1(empty);
        nFaces          870;
        startFace       829;
    }
    procBoundary31to24
    {
        type            processor;
        inGroups        List<word> 1(processor);
        nFaces          8;
        startFace       1699;
        matchTolerance  0.0001;
        transform       unknown;
        myProcNo        31;
        neighbProcNo    24;
    }
    procBoundary31to25
    {
        type            processor;
        inGroups        List<word> 1(processor);
        nFaces          14;
        startFace       1707;
        matchTolerance  0.0001;
        transform       unknown;
        myProcNo        31;
        neighbProcNo    25;
    }
    procBoundary31to26
    {
        type            processor;
        inGroups        List<word> 1(processor);
        nFaces          8;
        startFace       1721;
        matchTolerance  0.0001;
        transform       unknown;
        myProcNo        31;
        neighbProcNo    26;
    }
    procBoundary31to30
    {
        type            processor;
        inGroups        List<word> 1(processor);
        nFaces          30;
        startFace       1729;
        matchTolerance  0.0001;
        transform       unknown;
        myProcNo        31;
        neighbProcNo    30;
    }
    procBoundary31to32
    {
        type            processor;
        inGroups        List<word> 1(processor);
        nFaces          33;
        startFace       1759;
        matchTolerance  0.0001;
        transform       unknown;
        myProcNo        31;
        neighbProcNo    32;
    }
)

// ************************************************************************* //
