/*--------------------------------*- C++ -*----------------------------------*\
  =========                 |
  \\      /  F ield         | OpenFOAM: The Open Source CFD Toolbox
   \\    /   O peration     | Website:  https://openfoam.org
    \\  /    A nd           | Version:  7
     \\/     M anipulation  |
\*---------------------------------------------------------------------------*/
FoamFile
{
    version     2.0;
    format      ascii;
    class       polyBoundaryMesh;
    location    "constant/polyMesh";
    object      boundary;
}
// * * * * * * * * * * * * * * * * * * * * * * * * * * * * * * * * * * * * * //

16
(
    inlet
    {
        type            patch;
        nFaces          0;
        startFace       113;
    }
    outlet
    {
        type            patch;
        nFaces          0;
        startFace       113;
    }
    walls
    {
        type            wall;
        inGroups        List<word> 1(wall);
        nFaces          0;
        startFace       113;
    }
    wedge1
    {
        type            wedge;
        inGroups        List<word> 1(wedge);
        nFaces          0;
        startFace       113;
    }
    wedge2
    {
        type            wedge;
        inGroups        List<word> 1(wedge);
        nFaces          0;
        startFace       113;
    }
    wedge3
    {
        type            wedge;
        inGroups        List<word> 1(wedge);
        nFaces          0;
        startFace       113;
    }
    wedge4
    {
        type            wedge;
        inGroups        List<word> 1(wedge);
        nFaces          0;
        startFace       113;
    }
    wedge5
    {
        type            wedge;
        inGroups        List<word> 1(wedge);
        nFaces          65;
        startFace       113;
    }
    wedge6
    {
        type            wedge;
        inGroups        List<word> 1(wedge);
        nFaces          65;
        startFace       178;
    }
    empty
    {
        type            patch;
        nFaces          0;
        startFace       243;
    }
    procBoundary10to4
    {
        type            processor;
        inGroups        List<word> 1(processor);
        nFaces          11;
        startFace       243;
        matchTolerance  0.0001;
        transform       unknown;
        myProcNo        10;
        neighbProcNo    4;
    }
    procBoundary10to11
    {
        type            processor;
        inGroups        List<word> 1(processor);
        nFaces          6;
        startFace       254;
        matchTolerance  0.0001;
        transform       unknown;
        myProcNo        10;
        neighbProcNo    11;
    }
    procBoundary10to15
    {
        type            processor;
        inGroups        List<word> 1(processor);
        nFaces          4;
        startFace       260;
        matchTolerance  0.0001;
        transform       unknown;
        myProcNo        10;
        neighbProcNo    15;
    }
    procBoundary10to16
    {
        type            processor;
        inGroups        List<word> 1(processor);
        nFaces          10;
        startFace       264;
        matchTolerance  0.0001;
        transform       unknown;
        myProcNo        10;
        neighbProcNo    16;
    }
    procBoundary10to17
    {
        type            processor;
        inGroups        List<word> 1(processor);
        nFaces          1;
        startFace       274;
        matchTolerance  0.0001;
        transform       unknown;
        myProcNo        10;
        neighbProcNo    17;
    }
    procBoundary10to21
    {
        type            processor;
        inGroups        List<word> 1(processor);
        nFaces          2;
        startFace       275;
        matchTolerance  0.0001;
        transform       unknown;
        myProcNo        10;
        neighbProcNo    21;
    }
)

// ************************************************************************* //
