/*--------------------------------*- C++ -*----------------------------------*\
  =========                 |
  \\      /  F ield         | OpenFOAM: The Open Source CFD Toolbox
   \\    /   O peration     | Website:  https://openfoam.org
    \\  /    A nd           | Version:  7
     \\/     M anipulation  |
\*---------------------------------------------------------------------------*/
FoamFile
{
    version     2.0;
    format      ascii;
    class       polyBoundaryMesh;
    location    "constant/polyMesh";
    object      boundary;
}
// * * * * * * * * * * * * * * * * * * * * * * * * * * * * * * * * * * * * * //

16
(
    inlet
    {
        type            patch;
        nFaces          0;
        startFace       108;
    }
    outlet
    {
        type            patch;
        nFaces          0;
        startFace       108;
    }
    walls
    {
        type            wall;
        inGroups        List<word> 1(wall);
        nFaces          0;
        startFace       108;
    }
    wedge1
    {
        type            wedge;
        inGroups        List<word> 1(wedge);
        nFaces          20;
        startFace       108;
    }
    wedge2
    {
        type            wedge;
        inGroups        List<word> 1(wedge);
        nFaces          20;
        startFace       128;
    }
    wedge3
    {
        type            wedge;
        inGroups        List<word> 1(wedge);
        nFaces          45;
        startFace       148;
    }
    wedge4
    {
        type            wedge;
        inGroups        List<word> 1(wedge);
        nFaces          45;
        startFace       193;
    }
    wedge5
    {
        type            wedge;
        inGroups        List<word> 1(wedge);
        nFaces          0;
        startFace       238;
    }
    wedge6
    {
        type            wedge;
        inGroups        List<word> 1(wedge);
        nFaces          0;
        startFace       238;
    }
    empty
    {
        type            patch;
        nFaces          0;
        startFace       238;
    }
    procBoundary8to1
    {
        type            processor;
        inGroups        List<word> 1(processor);
        nFaces          2;
        startFace       238;
        matchTolerance  0.0001;
        transform       unknown;
        myProcNo        8;
        neighbProcNo    1;
    }
    procBoundary8to2
    {
        type            processor;
        inGroups        List<word> 1(processor);
        nFaces          18;
        startFace       240;
        matchTolerance  0.0001;
        transform       unknown;
        myProcNo        8;
        neighbProcNo    2;
    }
    procBoundary8to3
    {
        type            processor;
        inGroups        List<word> 1(processor);
        nFaces          1;
        startFace       258;
        matchTolerance  0.0001;
        transform       unknown;
        myProcNo        8;
        neighbProcNo    3;
    }
    procBoundary8to7
    {
        type            processor;
        inGroups        List<word> 1(processor);
        nFaces          2;
        startFace       259;
        matchTolerance  0.0001;
        transform       unknown;
        myProcNo        8;
        neighbProcNo    7;
    }
    procBoundary8to9
    {
        type            processor;
        inGroups        List<word> 1(processor);
        nFaces          3;
        startFace       261;
        matchTolerance  0.0001;
        transform       unknown;
        myProcNo        8;
        neighbProcNo    9;
    }
    procBoundary8to14
    {
        type            processor;
        inGroups        List<word> 1(processor);
        nFaces          18;
        startFace       264;
        matchTolerance  0.0001;
        transform       unknown;
        myProcNo        8;
        neighbProcNo    14;
    }
)

// ************************************************************************* //
