/*--------------------------------*- C++ -*----------------------------------*\
  =========                 |
  \\      /  F ield         | OpenFOAM: The Open Source CFD Toolbox
   \\    /   O peration     | Website:  https://openfoam.org
    \\  /    A nd           | Version:  7
     \\/     M anipulation  |
\*---------------------------------------------------------------------------*/
FoamFile
{
    version     2.0;
    format      ascii;
    class       polyBoundaryMesh;
    location    "constant/polyMesh";
    object      boundary;
}
// * * * * * * * * * * * * * * * * * * * * * * * * * * * * * * * * * * * * * //

15
(
    inlet
    {
        type            patch;
        nFaces          0;
        startFace       112;
    }
    outlet
    {
        type            patch;
        nFaces          0;
        startFace       112;
    }
    walls
    {
        type            wall;
        inGroups        List<word> 1(wall);
        nFaces          0;
        startFace       112;
    }
    wedge1
    {
        type            wedge;
        inGroups        List<word> 1(wedge);
        nFaces          65;
        startFace       112;
    }
    wedge2
    {
        type            wedge;
        inGroups        List<word> 1(wedge);
        nFaces          65;
        startFace       177;
    }
    wedge3
    {
        type            wedge;
        inGroups        List<word> 1(wedge);
        nFaces          0;
        startFace       242;
    }
    wedge4
    {
        type            wedge;
        inGroups        List<word> 1(wedge);
        nFaces          0;
        startFace       242;
    }
    wedge5
    {
        type            wedge;
        inGroups        List<word> 1(wedge);
        nFaces          0;
        startFace       242;
    }
    wedge6
    {
        type            wedge;
        inGroups        List<word> 1(wedge);
        nFaces          0;
        startFace       242;
    }
    empty
    {
        type            patch;
        nFaces          0;
        startFace       242;
    }
    procBoundary13to7
    {
        type            processor;
        inGroups        List<word> 1(processor);
        nFaces          12;
        startFace       242;
        matchTolerance  0.0001;
        transform       unknown;
        myProcNo        13;
        neighbProcNo    7;
    }
    procBoundary13to12
    {
        type            processor;
        inGroups        List<word> 1(processor);
        nFaces          6;
        startFace       254;
        matchTolerance  0.0001;
        transform       unknown;
        myProcNo        13;
        neighbProcNo    12;
    }
    procBoundary13to19
    {
        type            processor;
        inGroups        List<word> 1(processor);
        nFaces          12;
        startFace       260;
        matchTolerance  0.0001;
        transform       unknown;
        myProcNo        13;
        neighbProcNo    19;
    }
    procBoundary13to20
    {
        type            processor;
        inGroups        List<word> 1(processor);
        nFaces          4;
        startFace       272;
        matchTolerance  0.0001;
        transform       unknown;
        myProcNo        13;
        neighbProcNo    20;
    }
    procBoundary13to26
    {
        type            processor;
        inGroups        List<word> 1(processor);
        nFaces          2;
        startFace       276;
        matchTolerance  0.0001;
        transform       unknown;
        myProcNo        13;
        neighbProcNo    26;
    }
)

// ************************************************************************* //
