/*--------------------------------*- C++ -*----------------------------------*\
  =========                 |
  \\      /  F ield         | OpenFOAM: The Open Source CFD Toolbox
   \\    /   O peration     | Website:  https://openfoam.org
    \\  /    A nd           | Version:  7
     \\/     M anipulation  |
\*---------------------------------------------------------------------------*/
FoamFile
{
    version     2.0;
    format      ascii;
    class       polyBoundaryMesh;
    location    "constant/polyMesh";
    object      boundary;
}
// * * * * * * * * * * * * * * * * * * * * * * * * * * * * * * * * * * * * * //

8
(
    inlet
    {
        type            patch;
        nFaces          0;
        startFace       627;
    }
    outlet
    {
        type            patch;
        nFaces          6;
        startFace       627;
    }
    wall
    {
        type            wall;
        inGroups        List<word> 1(wall);
        nFaces          67;
        startFace       633;
    }
    wedge1
    {
        type            wedge;
        inGroups        List<word> 1(wedge);
        nFaces          350;
        startFace       700;
    }
    wedge2
    {
        type            wedge;
        inGroups        List<word> 1(wedge);
        nFaces          350;
        startFace       1050;
    }
    axis
    {
        type            empty;
        inGroups        List<word> 1(empty);
        nFaces          0;
        startFace       1400;
    }
    procBoundary47to41
    {
        type            processor;
        inGroups        List<word> 1(processor);
        nFaces          68;
        startFace       1400;
        matchTolerance  0.0001;
        transform       unknown;
        myProcNo        47;
        neighbProcNo    41;
    }
    procBoundary47to46
    {
        type            processor;
        inGroups        List<word> 1(processor);
        nFaces          5;
        startFace       1468;
        matchTolerance  0.0001;
        transform       unknown;
        myProcNo        47;
        neighbProcNo    46;
    }
)

// ************************************************************************* //
