/*--------------------------------*- C++ -*----------------------------------*\
  =========                 |
  \\      /  F ield         | OpenFOAM: The Open Source CFD Toolbox
   \\    /   O peration     | Website:  https://openfoam.org
    \\  /    A nd           | Version:  7
     \\/     M anipulation  |
\*---------------------------------------------------------------------------*/
FoamFile
{
    version     2.0;
    format      ascii;
    class       polyBoundaryMesh;
    location    "constant/polyMesh";
    object      boundary;
}
// * * * * * * * * * * * * * * * * * * * * * * * * * * * * * * * * * * * * * //

17
(
    inlet
    {
        type            patch;
        nFaces          0;
        startFace       113;
    }
    outlet
    {
        type            patch;
        nFaces          0;
        startFace       113;
    }
    walls
    {
        type            wall;
        inGroups        List<word> 1(wall);
        nFaces          0;
        startFace       113;
    }
    wedge1
    {
        type            wedge;
        inGroups        List<word> 1(wedge);
        nFaces          0;
        startFace       113;
    }
    wedge2
    {
        type            wedge;
        inGroups        List<word> 1(wedge);
        nFaces          0;
        startFace       113;
    }
    wedge3
    {
        type            wedge;
        inGroups        List<word> 1(wedge);
        nFaces          0;
        startFace       113;
    }
    wedge4
    {
        type            wedge;
        inGroups        List<word> 1(wedge);
        nFaces          0;
        startFace       113;
    }
    wedge5
    {
        type            wedge;
        inGroups        List<word> 1(wedge);
        nFaces          65;
        startFace       113;
    }
    wedge6
    {
        type            wedge;
        inGroups        List<word> 1(wedge);
        nFaces          65;
        startFace       178;
    }
    empty
    {
        type            patch;
        nFaces          0;
        startFace       243;
    }
    procBoundary16to10
    {
        type            processor;
        inGroups        List<word> 1(processor);
        nFaces          10;
        startFace       243;
        matchTolerance  0.0001;
        transform       unknown;
        myProcNo        16;
        neighbProcNo    10;
    }
    procBoundary16to17
    {
        type            processor;
        inGroups        List<word> 1(processor);
        nFaces          5;
        startFace       253;
        matchTolerance  0.0001;
        transform       unknown;
        myProcNo        16;
        neighbProcNo    17;
    }
    procBoundary16to21
    {
        type            processor;
        inGroups        List<word> 1(processor);
        nFaces          2;
        startFace       258;
        matchTolerance  0.0001;
        transform       unknown;
        myProcNo        16;
        neighbProcNo    21;
    }
    procBoundary16to22
    {
        type            processor;
        inGroups        List<word> 1(processor);
        nFaces          11;
        startFace       260;
        matchTolerance  0.0001;
        transform       unknown;
        myProcNo        16;
        neighbProcNo    22;
    }
    procBoundary16to23
    {
        type            processor;
        inGroups        List<word> 1(processor);
        nFaces          1;
        startFace       271;
        matchTolerance  0.0001;
        transform       unknown;
        myProcNo        16;
        neighbProcNo    23;
    }
    procBoundary16to27
    {
        type            processor;
        inGroups        List<word> 1(processor);
        nFaces          4;
        startFace       272;
        matchTolerance  0.0001;
        transform       unknown;
        myProcNo        16;
        neighbProcNo    27;
    }
    procBoundary16to33
    {
        type            processor;
        inGroups        List<word> 1(processor);
        nFaces          1;
        startFace       276;
        matchTolerance  0.0001;
        transform       unknown;
        myProcNo        16;
        neighbProcNo    33;
    }
)

// ************************************************************************* //
