/*--------------------------------*- C++ -*----------------------------------*\
  =========                 |
  \\      /  F ield         | OpenFOAM: The Open Source CFD Toolbox
   \\    /   O peration     | Website:  https://openfoam.org
    \\  /    A nd           | Version:  7
     \\/     M anipulation  |
\*---------------------------------------------------------------------------*/
FoamFile
{
    version     2.0;
    format      ascii;
    class       polyBoundaryMesh;
    location    "constant/polyMesh";
    object      boundary;
}
// * * * * * * * * * * * * * * * * * * * * * * * * * * * * * * * * * * * * * //

10
(
    inlet
    {
        type            patch;
        nFaces          0;
        startFace       814;
    }
    outlet
    {
        type            patch;
        nFaces          0;
        startFace       814;
    }
    cylinder
    {
        type            wall;
        inGroups        List<word> 1(wall);
        nFaces          25;
        startFace       814;
    }
    top
    {
        type            symmetryPlane;
        inGroups        List<word> 1(symmetryPlane);
        nFaces          0;
        startFace       839;
    }
    bottom
    {
        type            symmetryPlane;
        inGroups        List<word> 1(symmetryPlane);
        nFaces          0;
        startFace       839;
    }
    defaultFaces
    {
        type            empty;
        inGroups        List<word> 1(empty);
        nFaces          866;
        startFace       839;
    }
    procBoundary20to14
    {
        type            processor;
        inGroups        List<word> 1(processor);
        nFaces          2;
        startFace       1705;
        matchTolerance  0.0001;
        transform       unknown;
        myProcNo        20;
        neighbProcNo    14;
    }
    procBoundary20to25
    {
        type            processor;
        inGroups        List<word> 1(processor);
        nFaces          20;
        startFace       1707;
        matchTolerance  0.0001;
        transform       unknown;
        myProcNo        20;
        neighbProcNo    25;
    }
    procBoundary20to26
    {
        type            processor;
        inGroups        List<word> 1(processor);
        nFaces          28;
        startFace       1727;
        matchTolerance  0.0001;
        transform       unknown;
        myProcNo        20;
        neighbProcNo    26;
    }
    procBoundary20to27
    {
        type            processor;
        inGroups        List<word> 1(processor);
        nFaces          29;
        startFace       1755;
        matchTolerance  0.0001;
        transform       unknown;
        myProcNo        20;
        neighbProcNo    27;
    }
)

// ************************************************************************* //
