/*--------------------------------*- C++ -*----------------------------------*\
  =========                 |
  \\      /  F ield         | OpenFOAM: The Open Source CFD Toolbox
   \\    /   O peration     | Website:  https://openfoam.org
    \\  /    A nd           | Version:  7
     \\/     M anipulation  |
\*---------------------------------------------------------------------------*/
FoamFile
{
    version     2.0;
    format      ascii;
    class       polyBoundaryMesh;
    location    "constant/polyMesh";
    object      boundary;
}
// * * * * * * * * * * * * * * * * * * * * * * * * * * * * * * * * * * * * * //

12
(
    inlet
    {
        type            patch;
        nFaces          0;
        startFace       615;
    }
    outlet
    {
        type            patch;
        nFaces          0;
        startFace       615;
    }
    wall
    {
        type            wall;
        inGroups        List<word> 1(wall);
        nFaces          0;
        startFace       615;
    }
    wedge1
    {
        type            wedge;
        inGroups        List<word> 1(wedge);
        nFaces          344;
        startFace       615;
    }
    wedge2
    {
        type            wedge;
        inGroups        List<word> 1(wedge);
        nFaces          344;
        startFace       959;
    }
    axis
    {
        type            empty;
        inGroups        List<word> 1(empty);
        nFaces          0;
        startFace       1303;
    }
    procBoundary10to4
    {
        type            processor;
        inGroups        List<word> 1(processor);
        nFaces          68;
        startFace       1303;
        matchTolerance  0.0001;
        transform       unknown;
        myProcNo        10;
        neighbProcNo    4;
    }
    procBoundary10to5
    {
        type            processor;
        inGroups        List<word> 1(processor);
        nFaces          1;
        startFace       1371;
        matchTolerance  0.0001;
        transform       unknown;
        myProcNo        10;
        neighbProcNo    5;
    }
    procBoundary10to9
    {
        type            processor;
        inGroups        List<word> 1(processor);
        nFaces          3;
        startFace       1372;
        matchTolerance  0.0001;
        transform       unknown;
        myProcNo        10;
        neighbProcNo    9;
    }
    procBoundary10to11
    {
        type            processor;
        inGroups        List<word> 1(processor);
        nFaces          4;
        startFace       1375;
        matchTolerance  0.0001;
        transform       unknown;
        myProcNo        10;
        neighbProcNo    11;
    }
    procBoundary10to15
    {
        type            processor;
        inGroups        List<word> 1(processor);
        nFaces          2;
        startFace       1379;
        matchTolerance  0.0001;
        transform       unknown;
        myProcNo        10;
        neighbProcNo    15;
    }
    procBoundary10to16
    {
        type            processor;
        inGroups        List<word> 1(processor);
        nFaces          68;
        startFace       1381;
        matchTolerance  0.0001;
        transform       unknown;
        myProcNo        10;
        neighbProcNo    16;
    }
)

// ************************************************************************* //
