/*--------------------------------*- C++ -*----------------------------------*\
  =========                 |
  \\      /  F ield         | OpenFOAM: The Open Source CFD Toolbox
   \\    /   O peration     | Website:  https://openfoam.org
    \\  /    A nd           | Version:  7
     \\/     M anipulation  |
\*---------------------------------------------------------------------------*/
FoamFile
{
    version     2.0;
    format      ascii;
    class       polyBoundaryMesh;
    location    "constant/polyMesh";
    object      boundary;
}
// * * * * * * * * * * * * * * * * * * * * * * * * * * * * * * * * * * * * * //

10
(
    inlet
    {
        type            patch;
        nFaces          10;
        startFace       809;
    }
    outlet
    {
        type            patch;
        nFaces          0;
        startFace       819;
    }
    cylinder
    {
        type            wall;
        inGroups        List<word> 1(wall);
        nFaces          0;
        startFace       819;
    }
    top
    {
        type            symmetryPlane;
        inGroups        List<word> 1(symmetryPlane);
        nFaces          0;
        startFace       819;
    }
    bottom
    {
        type            symmetryPlane;
        inGroups        List<word> 1(symmetryPlane);
        nFaces          0;
        startFace       819;
    }
    defaultFaces
    {
        type            empty;
        inGroups        List<word> 1(empty);
        nFaces          866;
        startFace       819;
    }
    procBoundary12to6
    {
        type            processor;
        inGroups        List<word> 1(processor);
        nFaces          35;
        startFace       1685;
        matchTolerance  0.0001;
        transform       unknown;
        myProcNo        12;
        neighbProcNo    6;
    }
    procBoundary12to13
    {
        type            processor;
        inGroups        List<word> 1(processor);
        nFaces          26;
        startFace       1720;
        matchTolerance  0.0001;
        transform       unknown;
        myProcNo        12;
        neighbProcNo    13;
    }
    procBoundary12to18
    {
        type            processor;
        inGroups        List<word> 1(processor);
        nFaces          42;
        startFace       1746;
        matchTolerance  0.0001;
        transform       unknown;
        myProcNo        12;
        neighbProcNo    18;
    }
    procBoundary12to19
    {
        type            processor;
        inGroups        List<word> 1(processor);
        nFaces          1;
        startFace       1788;
        matchTolerance  0.0001;
        transform       unknown;
        myProcNo        12;
        neighbProcNo    19;
    }
)

// ************************************************************************* //
