/*--------------------------------*- C++ -*----------------------------------*\
  =========                 |
  \\      /  F ield         | OpenFOAM: The Open Source CFD Toolbox
   \\    /   O peration     | Website:  https://openfoam.org
    \\  /    A nd           | Version:  7
     \\/     M anipulation  |
\*---------------------------------------------------------------------------*/
FoamFile
{
    version     2.0;
    format      ascii;
    class       polyBoundaryMesh;
    location    "constant/polyMesh";
    object      boundary;
}
// * * * * * * * * * * * * * * * * * * * * * * * * * * * * * * * * * * * * * //

15
(
    inlet
    {
        type            patch;
        nFaces          0;
        startFace       108;
    }
    outlet
    {
        type            patch;
        nFaces          0;
        startFace       108;
    }
    walls
    {
        type            wall;
        inGroups        List<word> 1(wall);
        nFaces          0;
        startFace       108;
    }
    wedge1
    {
        type            wedge;
        inGroups        List<word> 1(wedge);
        nFaces          0;
        startFace       108;
    }
    wedge2
    {
        type            wedge;
        inGroups        List<word> 1(wedge);
        nFaces          0;
        startFace       108;
    }
    wedge3
    {
        type            wedge;
        inGroups        List<word> 1(wedge);
        nFaces          50;
        startFace       108;
    }
    wedge4
    {
        type            wedge;
        inGroups        List<word> 1(wedge);
        nFaces          50;
        startFace       158;
    }
    wedge5
    {
        type            wedge;
        inGroups        List<word> 1(wedge);
        nFaces          15;
        startFace       208;
    }
    wedge6
    {
        type            wedge;
        inGroups        List<word> 1(wedge);
        nFaces          15;
        startFace       223;
    }
    empty
    {
        type            patch;
        nFaces          0;
        startFace       238;
    }
    procBoundary9to3
    {
        type            processor;
        inGroups        List<word> 1(processor);
        nFaces          18;
        startFace       238;
        matchTolerance  0.0001;
        transform       unknown;
        myProcNo        9;
        neighbProcNo    3;
    }
    procBoundary9to4
    {
        type            processor;
        inGroups        List<word> 1(processor);
        nFaces          4;
        startFace       256;
        matchTolerance  0.0001;
        transform       unknown;
        myProcNo        9;
        neighbProcNo    4;
    }
    procBoundary9to8
    {
        type            processor;
        inGroups        List<word> 1(processor);
        nFaces          3;
        startFace       260;
        matchTolerance  0.0001;
        transform       unknown;
        myProcNo        9;
        neighbProcNo    8;
    }
    procBoundary9to14
    {
        type            processor;
        inGroups        List<word> 1(processor);
        nFaces          1;
        startFace       263;
        matchTolerance  0.0001;
        transform       unknown;
        myProcNo        9;
        neighbProcNo    14;
    }
    procBoundary9to15
    {
        type            processor;
        inGroups        List<word> 1(processor);
        nFaces          18;
        startFace       264;
        matchTolerance  0.0001;
        transform       unknown;
        myProcNo        9;
        neighbProcNo    15;
    }
)

// ************************************************************************* //
