/*--------------------------------*- C++ -*----------------------------------*\
  =========                 |
  \\      /  F ield         | OpenFOAM: The Open Source CFD Toolbox
   \\    /   O peration     | Website:  https://openfoam.org
    \\  /    A nd           | Version:  7
     \\/     M anipulation  |
\*---------------------------------------------------------------------------*/
FoamFile
{
    version     2.0;
    format      ascii;
    class       polyBoundaryMesh;
    location    "constant/polyMesh";
    object      boundary;
}
// * * * * * * * * * * * * * * * * * * * * * * * * * * * * * * * * * * * * * //

12
(
    inlet
    {
        type            patch;
        nFaces          0;
        startFace       614;
    }
    outlet
    {
        type            patch;
        nFaces          0;
        startFace       614;
    }
    wall
    {
        type            wall;
        inGroups        List<word> 1(wall);
        nFaces          0;
        startFace       614;
    }
    wedge1
    {
        type            wedge;
        inGroups        List<word> 1(wedge);
        nFaces          344;
        startFace       614;
    }
    wedge2
    {
        type            wedge;
        inGroups        List<word> 1(wedge);
        nFaces          344;
        startFace       958;
    }
    axis
    {
        type            empty;
        inGroups        List<word> 1(empty);
        nFaces          0;
        startFace       1302;
    }
    procBoundary22to16
    {
        type            processor;
        inGroups        List<word> 1(processor);
        nFaces          69;
        startFace       1302;
        matchTolerance  0.0001;
        transform       unknown;
        myProcNo        22;
        neighbProcNo    16;
    }
    procBoundary22to17
    {
        type            processor;
        inGroups        List<word> 1(processor);
        nFaces          1;
        startFace       1371;
        matchTolerance  0.0001;
        transform       unknown;
        myProcNo        22;
        neighbProcNo    17;
    }
    procBoundary22to21
    {
        type            processor;
        inGroups        List<word> 1(processor);
        nFaces          5;
        startFace       1372;
        matchTolerance  0.0001;
        transform       unknown;
        myProcNo        22;
        neighbProcNo    21;
    }
    procBoundary22to23
    {
        type            processor;
        inGroups        List<word> 1(processor);
        nFaces          4;
        startFace       1377;
        matchTolerance  0.0001;
        transform       unknown;
        myProcNo        22;
        neighbProcNo    23;
    }
    procBoundary22to27
    {
        type            processor;
        inGroups        List<word> 1(processor);
        nFaces          1;
        startFace       1381;
        matchTolerance  0.0001;
        transform       unknown;
        myProcNo        22;
        neighbProcNo    27;
    }
    procBoundary22to28
    {
        type            processor;
        inGroups        List<word> 1(processor);
        nFaces          68;
        startFace       1382;
        matchTolerance  0.0001;
        transform       unknown;
        myProcNo        22;
        neighbProcNo    28;
    }
)

// ************************************************************************* //
