/*--------------------------------*- C++ -*----------------------------------*\
  =========                 |
  \\      /  F ield         | OpenFOAM: The Open Source CFD Toolbox
   \\    /   O peration     | Website:  https://openfoam.org
    \\  /    A nd           | Version:  7
     \\/     M anipulation  |
\*---------------------------------------------------------------------------*/
FoamFile
{
    version     2.0;
    format      ascii;
    class       polyBoundaryMesh;
    location    "constant/polyMesh";
    object      boundary;
}
// * * * * * * * * * * * * * * * * * * * * * * * * * * * * * * * * * * * * * //

15
(
    inlet
    {
        type            patch;
        nFaces          0;
        startFace       112;
    }
    outlet
    {
        type            patch;
        nFaces          0;
        startFace       112;
    }
    walls
    {
        type            wall;
        inGroups        List<word> 1(wall);
        nFaces          0;
        startFace       112;
    }
    wedge1
    {
        type            wedge;
        inGroups        List<word> 1(wedge);
        nFaces          0;
        startFace       112;
    }
    wedge2
    {
        type            wedge;
        inGroups        List<word> 1(wedge);
        nFaces          0;
        startFace       112;
    }
    wedge3
    {
        type            wedge;
        inGroups        List<word> 1(wedge);
        nFaces          0;
        startFace       112;
    }
    wedge4
    {
        type            wedge;
        inGroups        List<word> 1(wedge);
        nFaces          0;
        startFace       112;
    }
    wedge5
    {
        type            wedge;
        inGroups        List<word> 1(wedge);
        nFaces          65;
        startFace       112;
    }
    wedge6
    {
        type            wedge;
        inGroups        List<word> 1(wedge);
        nFaces          65;
        startFace       177;
    }
    empty
    {
        type            patch;
        nFaces          0;
        startFace       242;
    }
    procBoundary34to28
    {
        type            processor;
        inGroups        List<word> 1(processor);
        nFaces          12;
        startFace       242;
        matchTolerance  0.0001;
        transform       unknown;
        myProcNo        34;
        neighbProcNo    28;
    }
    procBoundary34to35
    {
        type            processor;
        inGroups        List<word> 1(processor);
        nFaces          6;
        startFace       254;
        matchTolerance  0.0001;
        transform       unknown;
        myProcNo        34;
        neighbProcNo    35;
    }
    procBoundary34to39
    {
        type            processor;
        inGroups        List<word> 1(processor);
        nFaces          3;
        startFace       260;
        matchTolerance  0.0001;
        transform       unknown;
        myProcNo        34;
        neighbProcNo    39;
    }
    procBoundary34to40
    {
        type            processor;
        inGroups        List<word> 1(processor);
        nFaces          12;
        startFace       263;
        matchTolerance  0.0001;
        transform       unknown;
        myProcNo        34;
        neighbProcNo    40;
    }
    procBoundary34to45
    {
        type            processor;
        inGroups        List<word> 1(processor);
        nFaces          3;
        startFace       275;
        matchTolerance  0.0001;
        transform       unknown;
        myProcNo        34;
        neighbProcNo    45;
    }
)

// ************************************************************************* //
