/*--------------------------------*- C++ -*----------------------------------*\
  =========                 |
  \\      /  F ield         | OpenFOAM: The Open Source CFD Toolbox
   \\    /   O peration     | Website:  https://openfoam.org
    \\  /    A nd           | Version:  7
     \\/     M anipulation  |
\*---------------------------------------------------------------------------*/
FoamFile
{
    version     2.0;
    format      ascii;
    class       polyBoundaryMesh;
    location    "constant/polyMesh";
    object      boundary;
}
// * * * * * * * * * * * * * * * * * * * * * * * * * * * * * * * * * * * * * //

15
(
    inlet
    {
        type            patch;
        nFaces          0;
        startFace       113;
    }
    outlet
    {
        type            patch;
        nFaces          0;
        startFace       113;
    }
    walls
    {
        type            wall;
        inGroups        List<word> 1(wall);
        nFaces          0;
        startFace       113;
    }
    wedge1
    {
        type            wedge;
        inGroups        List<word> 1(wedge);
        nFaces          65;
        startFace       113;
    }
    wedge2
    {
        type            wedge;
        inGroups        List<word> 1(wedge);
        nFaces          65;
        startFace       178;
    }
    wedge3
    {
        type            wedge;
        inGroups        List<word> 1(wedge);
        nFaces          0;
        startFace       243;
    }
    wedge4
    {
        type            wedge;
        inGroups        List<word> 1(wedge);
        nFaces          0;
        startFace       243;
    }
    wedge5
    {
        type            wedge;
        inGroups        List<word> 1(wedge);
        nFaces          0;
        startFace       243;
    }
    wedge6
    {
        type            wedge;
        inGroups        List<word> 1(wedge);
        nFaces          0;
        startFace       243;
    }
    empty
    {
        type            patch;
        nFaces          0;
        startFace       243;
    }
    procBoundary37to30
    {
        type            processor;
        inGroups        List<word> 1(processor);
        nFaces          1;
        startFace       243;
        matchTolerance  0.0001;
        transform       unknown;
        myProcNo        37;
        neighbProcNo    30;
    }
    procBoundary37to31
    {
        type            processor;
        inGroups        List<word> 1(processor);
        nFaces          10;
        startFace       244;
        matchTolerance  0.0001;
        transform       unknown;
        myProcNo        37;
        neighbProcNo    31;
    }
    procBoundary37to36
    {
        type            processor;
        inGroups        List<word> 1(processor);
        nFaces          6;
        startFace       254;
        matchTolerance  0.0001;
        transform       unknown;
        myProcNo        37;
        neighbProcNo    36;
    }
    procBoundary37to43
    {
        type            processor;
        inGroups        List<word> 1(processor);
        nFaces          11;
        startFace       260;
        matchTolerance  0.0001;
        transform       unknown;
        myProcNo        37;
        neighbProcNo    43;
    }
    procBoundary37to44
    {
        type            processor;
        inGroups        List<word> 1(processor);
        nFaces          6;
        startFace       271;
        matchTolerance  0.0001;
        transform       unknown;
        myProcNo        37;
        neighbProcNo    44;
    }
)

// ************************************************************************* //
