/*--------------------------------*- C++ -*----------------------------------*\
  =========                 |
  \\      /  F ield         | OpenFOAM: The Open Source CFD Toolbox
   \\    /   O peration     | Website:  https://openfoam.org
    \\  /    A nd           | Version:  7
     \\/     M anipulation  |
\*---------------------------------------------------------------------------*/
FoamFile
{
    version     2.0;
    format      ascii;
    class       polyBoundaryMesh;
    location    "constant/polyMesh";
    object      boundary;
}
// * * * * * * * * * * * * * * * * * * * * * * * * * * * * * * * * * * * * * //

9
(
    inlet
    {
        type            patch;
        nFaces          10;
        startFace       810;
    }
    outlet
    {
        type            patch;
        nFaces          0;
        startFace       820;
    }
    cylinder
    {
        type            wall;
        inGroups        List<word> 1(wall);
        nFaces          0;
        startFace       820;
    }
    top
    {
        type            symmetryPlane;
        inGroups        List<word> 1(symmetryPlane);
        nFaces          0;
        startFace       820;
    }
    bottom
    {
        type            symmetryPlane;
        inGroups        List<word> 1(symmetryPlane);
        nFaces          0;
        startFace       820;
    }
    defaultFaces
    {
        type            empty;
        inGroups        List<word> 1(empty);
        nFaces          866;
        startFace       820;
    }
    procBoundary18to12
    {
        type            processor;
        inGroups        List<word> 1(processor);
        nFaces          42;
        startFace       1686;
        matchTolerance  0.0001;
        transform       unknown;
        myProcNo        18;
        neighbProcNo    12;
    }
    procBoundary18to19
    {
        type            processor;
        inGroups        List<word> 1(processor);
        nFaces          25;
        startFace       1728;
        matchTolerance  0.0001;
        transform       unknown;
        myProcNo        18;
        neighbProcNo    19;
    }
    procBoundary18to24
    {
        type            processor;
        inGroups        List<word> 1(processor);
        nFaces          35;
        startFace       1753;
        matchTolerance  0.0001;
        transform       unknown;
        myProcNo        18;
        neighbProcNo    24;
    }
)

// ************************************************************************* //
