/*--------------------------------*- C++ -*----------------------------------*\
  =========                 |
  \\      /  F ield         | OpenFOAM: The Open Source CFD Toolbox
   \\    /   O peration     | Website:  https://openfoam.org
    \\  /    A nd           | Version:  7
     \\/     M anipulation  |
\*---------------------------------------------------------------------------*/
FoamFile
{
    version     2.0;
    format      ascii;
    class       polyBoundaryMesh;
    location    "constant/polyMesh";
    object      boundary;
}
// * * * * * * * * * * * * * * * * * * * * * * * * * * * * * * * * * * * * * //

16
(
    inlet
    {
        type            patch;
        nFaces          0;
        startFace       113;
    }
    outlet
    {
        type            patch;
        nFaces          0;
        startFace       113;
    }
    walls
    {
        type            wall;
        inGroups        List<word> 1(wall);
        nFaces          0;
        startFace       113;
    }
    wedge1
    {
        type            wedge;
        inGroups        List<word> 1(wedge);
        nFaces          0;
        startFace       113;
    }
    wedge2
    {
        type            wedge;
        inGroups        List<word> 1(wedge);
        nFaces          0;
        startFace       113;
    }
    wedge3
    {
        type            wedge;
        inGroups        List<word> 1(wedge);
        nFaces          0;
        startFace       113;
    }
    wedge4
    {
        type            wedge;
        inGroups        List<word> 1(wedge);
        nFaces          0;
        startFace       113;
    }
    wedge5
    {
        type            wedge;
        inGroups        List<word> 1(wedge);
        nFaces          65;
        startFace       113;
    }
    wedge6
    {
        type            wedge;
        inGroups        List<word> 1(wedge);
        nFaces          65;
        startFace       178;
    }
    empty
    {
        type            patch;
        nFaces          0;
        startFace       243;
    }
    procBoundary22to16
    {
        type            processor;
        inGroups        List<word> 1(processor);
        nFaces          11;
        startFace       243;
        matchTolerance  0.0001;
        transform       unknown;
        myProcNo        22;
        neighbProcNo    16;
    }
    procBoundary22to23
    {
        type            processor;
        inGroups        List<word> 1(processor);
        nFaces          5;
        startFace       254;
        matchTolerance  0.0001;
        transform       unknown;
        myProcNo        22;
        neighbProcNo    23;
    }
    procBoundary22to28
    {
        type            processor;
        inGroups        List<word> 1(processor);
        nFaces          11;
        startFace       259;
        matchTolerance  0.0001;
        transform       unknown;
        myProcNo        22;
        neighbProcNo    28;
    }
    procBoundary22to29
    {
        type            processor;
        inGroups        List<word> 1(processor);
        nFaces          1;
        startFace       270;
        matchTolerance  0.0001;
        transform       unknown;
        myProcNo        22;
        neighbProcNo    29;
    }
    procBoundary22to33
    {
        type            processor;
        inGroups        List<word> 1(processor);
        nFaces          3;
        startFace       271;
        matchTolerance  0.0001;
        transform       unknown;
        myProcNo        22;
        neighbProcNo    33;
    }
    procBoundary22to39
    {
        type            processor;
        inGroups        List<word> 1(processor);
        nFaces          3;
        startFace       274;
        matchTolerance  0.0001;
        transform       unknown;
        myProcNo        22;
        neighbProcNo    39;
    }
)

// ************************************************************************* //
