/*--------------------------------*- C++ -*----------------------------------*\
  =========                 |
  \\      /  F ield         | OpenFOAM: The Open Source CFD Toolbox
   \\    /   O peration     | Website:  https://openfoam.org
    \\  /    A nd           | Version:  7
     \\/     M anipulation  |
\*---------------------------------------------------------------------------*/
FoamFile
{
    version     2.0;
    format      ascii;
    class       polyBoundaryMesh;
    location    "constant/polyMesh";
    object      boundary;
}
// * * * * * * * * * * * * * * * * * * * * * * * * * * * * * * * * * * * * * //

16
(
    inlet
    {
        type            patch;
        nFaces          0;
        startFace       102;
    }
    outlet
    {
        type            patch;
        nFaces          0;
        startFace       102;
    }
    walls
    {
        type            wall;
        inGroups        List<word> 1(wall);
        nFaces          21;
        startFace       102;
    }
    wedge1
    {
        type            wedge;
        inGroups        List<word> 1(wedge);
        nFaces          39;
        startFace       123;
    }
    wedge2
    {
        type            wedge;
        inGroups        List<word> 1(wedge);
        nFaces          39;
        startFace       162;
    }
    wedge3
    {
        type            wedge;
        inGroups        List<word> 1(wedge);
        nFaces          26;
        startFace       201;
    }
    wedge4
    {
        type            wedge;
        inGroups        List<word> 1(wedge);
        nFaces          26;
        startFace       227;
    }
    wedge5
    {
        type            wedge;
        inGroups        List<word> 1(wedge);
        nFaces          0;
        startFace       253;
    }
    wedge6
    {
        type            wedge;
        inGroups        List<word> 1(wedge);
        nFaces          0;
        startFace       253;
    }
    empty
    {
        type            patch;
        nFaces          0;
        startFace       253;
    }
    procBoundary38to25
    {
        type            processor;
        inGroups        List<word> 1(processor);
        nFaces          6;
        startFace       253;
        matchTolerance  0.0001;
        transform       unknown;
        myProcNo        38;
        neighbProcNo    25;
    }
    procBoundary38to31
    {
        type            processor;
        inGroups        List<word> 1(processor);
        nFaces          4;
        startFace       259;
        matchTolerance  0.0001;
        transform       unknown;
        myProcNo        38;
        neighbProcNo    31;
    }
    procBoundary38to32
    {
        type            processor;
        inGroups        List<word> 1(processor);
        nFaces          18;
        startFace       263;
        matchTolerance  0.0001;
        transform       unknown;
        myProcNo        38;
        neighbProcNo    32;
    }
    procBoundary38to33
    {
        type            processor;
        inGroups        List<word> 1(processor);
        nFaces          1;
        startFace       281;
        matchTolerance  0.0001;
        transform       unknown;
        myProcNo        38;
        neighbProcNo    33;
    }
    procBoundary38to39
    {
        type            processor;
        inGroups        List<word> 1(processor);
        nFaces          1;
        startFace       282;
        matchTolerance  0.0001;
        transform       unknown;
        myProcNo        38;
        neighbProcNo    39;
    }
    procBoundary38to44
    {
        type            processor;
        inGroups        List<word> 1(processor);
        nFaces          5;
        startFace       283;
        matchTolerance  0.0001;
        transform       unknown;
        myProcNo        38;
        neighbProcNo    44;
    }
)

// ************************************************************************* //
