/*--------------------------------*- C++ -*----------------------------------*\
  =========                 |
  \\      /  F ield         | OpenFOAM: The Open Source CFD Toolbox
   \\    /   O peration     | Website:  https://openfoam.org
    \\  /    A nd           | Version:  7
     \\/     M anipulation  |
\*---------------------------------------------------------------------------*/
FoamFile
{
    version     2.0;
    format      ascii;
    class       polyBoundaryMesh;
    location    "constant/polyMesh";
    object      boundary;
}
// * * * * * * * * * * * * * * * * * * * * * * * * * * * * * * * * * * * * * //

10
(
    inlet
    {
        type            patch;
        nFaces          0;
        startFace       615;
    }
    outlet
    {
        type            patch;
        nFaces          5;
        startFace       615;
    }
    wall
    {
        type            wall;
        inGroups        List<word> 1(wall);
        nFaces          0;
        startFace       620;
    }
    wedge1
    {
        type            wedge;
        inGroups        List<word> 1(wedge);
        nFaces          344;
        startFace       620;
    }
    wedge2
    {
        type            wedge;
        inGroups        List<word> 1(wedge);
        nFaces          344;
        startFace       964;
    }
    axis
    {
        type            empty;
        inGroups        List<word> 1(empty);
        nFaces          0;
        startFace       1308;
    }
    procBoundary17to11
    {
        type            processor;
        inGroups        List<word> 1(processor);
        nFaces          68;
        startFace       1308;
        matchTolerance  0.0001;
        transform       unknown;
        myProcNo        17;
        neighbProcNo    11;
    }
    procBoundary17to16
    {
        type            processor;
        inGroups        List<word> 1(processor);
        nFaces          4;
        startFace       1376;
        matchTolerance  0.0001;
        transform       unknown;
        myProcNo        17;
        neighbProcNo    16;
    }
    procBoundary17to22
    {
        type            processor;
        inGroups        List<word> 1(processor);
        nFaces          1;
        startFace       1380;
        matchTolerance  0.0001;
        transform       unknown;
        myProcNo        17;
        neighbProcNo    22;
    }
    procBoundary17to23
    {
        type            processor;
        inGroups        List<word> 1(processor);
        nFaces          68;
        startFace       1381;
        matchTolerance  0.0001;
        transform       unknown;
        myProcNo        17;
        neighbProcNo    23;
    }
)

// ************************************************************************* //
