/*--------------------------------*- C++ -*----------------------------------*\
  =========                 |
  \\      /  F ield         | OpenFOAM: The Open Source CFD Toolbox
   \\    /   O peration     | Website:  https://openfoam.org
    \\  /    A nd           | Version:  7
     \\/     M anipulation  |
\*---------------------------------------------------------------------------*/
FoamFile
{
    version     2.0;
    format      ascii;
    class       polyBoundaryMesh;
    location    "constant/polyMesh";
    object      boundary;
}
// * * * * * * * * * * * * * * * * * * * * * * * * * * * * * * * * * * * * * //

12
(
    inlet
    {
        type            patch;
        nFaces          0;
        startFace       819;
    }
    outlet
    {
        type            patch;
        nFaces          0;
        startFace       819;
    }
    cylinder
    {
        type            wall;
        inGroups        List<word> 1(wall);
        nFaces          0;
        startFace       819;
    }
    top
    {
        type            symmetryPlane;
        inGroups        List<word> 1(symmetryPlane);
        nFaces          0;
        startFace       819;
    }
    bottom
    {
        type            symmetryPlane;
        inGroups        List<word> 1(symmetryPlane);
        nFaces          0;
        startFace       819;
    }
    defaultFaces
    {
        type            empty;
        inGroups        List<word> 1(empty);
        nFaces          866;
        startFace       819;
    }
    procBoundary28to22
    {
        type            processor;
        inGroups        List<word> 1(processor);
        nFaces          26;
        startFace       1685;
        matchTolerance  0.0001;
        transform       unknown;
        myProcNo        28;
        neighbProcNo    22;
    }
    procBoundary28to23
    {
        type            processor;
        inGroups        List<word> 1(processor);
        nFaces          3;
        startFace       1711;
        matchTolerance  0.0001;
        transform       unknown;
        myProcNo        28;
        neighbProcNo    23;
    }
    procBoundary28to27
    {
        type            processor;
        inGroups        List<word> 1(processor);
        nFaces          10;
        startFace       1714;
        matchTolerance  0.0001;
        transform       unknown;
        myProcNo        28;
        neighbProcNo    27;
    }
    procBoundary28to29
    {
        type            processor;
        inGroups        List<word> 1(processor);
        nFaces          20;
        startFace       1724;
        matchTolerance  0.0001;
        transform       unknown;
        myProcNo        28;
        neighbProcNo    29;
    }
    procBoundary28to33
    {
        type            processor;
        inGroups        List<word> 1(processor);
        nFaces          15;
        startFace       1744;
        matchTolerance  0.0001;
        transform       unknown;
        myProcNo        28;
        neighbProcNo    33;
    }
    procBoundary28to34
    {
        type            processor;
        inGroups        List<word> 1(processor);
        nFaces          20;
        startFace       1759;
        matchTolerance  0.0001;
        transform       unknown;
        myProcNo        28;
        neighbProcNo    34;
    }
)

// ************************************************************************* //
