/*--------------------------------*- C++ -*----------------------------------*\
  =========                 |
  \\      /  F ield         | OpenFOAM: The Open Source CFD Toolbox
   \\    /   O peration     | Website:  https://openfoam.org
    \\  /    A nd           | Version:  7
     \\/     M anipulation  |
\*---------------------------------------------------------------------------*/
FoamFile
{
    version     2.0;
    format      ascii;
    class       polyBoundaryMesh;
    location    "constant/polyMesh";
    object      boundary;
}
// * * * * * * * * * * * * * * * * * * * * * * * * * * * * * * * * * * * * * //

11
(
    inlet
    {
        type            patch;
        nFaces          0;
        startFace       817;
    }
    outlet
    {
        type            patch;
        nFaces          0;
        startFace       817;
    }
    cylinder
    {
        type            wall;
        inGroups        List<word> 1(wall);
        nFaces          0;
        startFace       817;
    }
    top
    {
        type            symmetryPlane;
        inGroups        List<word> 1(symmetryPlane);
        nFaces          11;
        startFace       817;
    }
    bottom
    {
        type            symmetryPlane;
        inGroups        List<word> 1(symmetryPlane);
        nFaces          0;
        startFace       828;
    }
    defaultFaces
    {
        type            empty;
        inGroups        List<word> 1(empty);
        nFaces          870;
        startFace       828;
    }
    procBoundary33to26
    {
        type            processor;
        inGroups        List<word> 1(processor);
        nFaces          9;
        startFace       1698;
        matchTolerance  0.0001;
        transform       unknown;
        myProcNo        33;
        neighbProcNo    26;
    }
    procBoundary33to27
    {
        type            processor;
        inGroups        List<word> 1(processor);
        nFaces          16;
        startFace       1707;
        matchTolerance  0.0001;
        transform       unknown;
        myProcNo        33;
        neighbProcNo    27;
    }
    procBoundary33to28
    {
        type            processor;
        inGroups        List<word> 1(processor);
        nFaces          15;
        startFace       1723;
        matchTolerance  0.0001;
        transform       unknown;
        myProcNo        33;
        neighbProcNo    28;
    }
    procBoundary33to32
    {
        type            processor;
        inGroups        List<word> 1(processor);
        nFaces          33;
        startFace       1738;
        matchTolerance  0.0001;
        transform       unknown;
        myProcNo        33;
        neighbProcNo    32;
    }
    procBoundary33to34
    {
        type            processor;
        inGroups        List<word> 1(processor);
        nFaces          22;
        startFace       1771;
        matchTolerance  0.0001;
        transform       unknown;
        myProcNo        33;
        neighbProcNo    34;
    }
)

// ************************************************************************* //
