/*--------------------------------*- C++ -*----------------------------------*\
  =========                 |
  \\      /  F ield         | OpenFOAM: The Open Source CFD Toolbox
   \\    /   O peration     | Website:  https://openfoam.org
    \\  /    A nd           | Version:  7
     \\/     M anipulation  |
\*---------------------------------------------------------------------------*/
FoamFile
{
    version     2.0;
    format      ascii;
    class       polyBoundaryMesh;
    location    "constant/polyMesh";
    object      boundary;
}
// * * * * * * * * * * * * * * * * * * * * * * * * * * * * * * * * * * * * * //

12
(
    inlet
    {
        type            patch;
        nFaces          0;
        startFace       614;
    }
    outlet
    {
        type            patch;
        nFaces          0;
        startFace       614;
    }
    wall
    {
        type            wall;
        inGroups        List<word> 1(wall);
        nFaces          0;
        startFace       614;
    }
    wedge1
    {
        type            wedge;
        inGroups        List<word> 1(wedge);
        nFaces          344;
        startFace       614;
    }
    wedge2
    {
        type            wedge;
        inGroups        List<word> 1(wedge);
        nFaces          344;
        startFace       958;
    }
    axis
    {
        type            empty;
        inGroups        List<word> 1(empty);
        nFaces          0;
        startFace       1302;
    }
    procBoundary37to31
    {
        type            processor;
        inGroups        List<word> 1(processor);
        nFaces          69;
        startFace       1302;
        matchTolerance  0.0001;
        transform       unknown;
        myProcNo        37;
        neighbProcNo    31;
    }
    procBoundary37to32
    {
        type            processor;
        inGroups        List<word> 1(processor);
        nFaces          1;
        startFace       1371;
        matchTolerance  0.0001;
        transform       unknown;
        myProcNo        37;
        neighbProcNo    32;
    }
    procBoundary37to36
    {
        type            processor;
        inGroups        List<word> 1(processor);
        nFaces          5;
        startFace       1372;
        matchTolerance  0.0001;
        transform       unknown;
        myProcNo        37;
        neighbProcNo    36;
    }
    procBoundary37to38
    {
        type            processor;
        inGroups        List<word> 1(processor);
        nFaces          4;
        startFace       1377;
        matchTolerance  0.0001;
        transform       unknown;
        myProcNo        37;
        neighbProcNo    38;
    }
    procBoundary37to42
    {
        type            processor;
        inGroups        List<word> 1(processor);
        nFaces          1;
        startFace       1381;
        matchTolerance  0.0001;
        transform       unknown;
        myProcNo        37;
        neighbProcNo    42;
    }
    procBoundary37to43
    {
        type            processor;
        inGroups        List<word> 1(processor);
        nFaces          68;
        startFace       1382;
        matchTolerance  0.0001;
        transform       unknown;
        myProcNo        37;
        neighbProcNo    43;
    }
)

// ************************************************************************* //
