/*--------------------------------*- C++ -*----------------------------------*\
  =========                 |
  \\      /  F ield         | OpenFOAM: The Open Source CFD Toolbox
   \\    /   O peration     | Website:  https://openfoam.org
    \\  /    A nd           | Version:  7
     \\/     M anipulation  |
\*---------------------------------------------------------------------------*/
FoamFile
{
    version     2.0;
    format      ascii;
    class       polyBoundaryMesh;
    location    "constant/polyMesh";
    object      boundary;
}
// * * * * * * * * * * * * * * * * * * * * * * * * * * * * * * * * * * * * * //

12
(
    inlet
    {
        type            patch;
        nFaces          0;
        startFace       819;
    }
    outlet
    {
        type            patch;
        nFaces          0;
        startFace       819;
    }
    cylinder
    {
        type            wall;
        inGroups        List<word> 1(wall);
        nFaces          0;
        startFace       819;
    }
    top
    {
        type            symmetryPlane;
        inGroups        List<word> 1(symmetryPlane);
        nFaces          0;
        startFace       819;
    }
    bottom
    {
        type            symmetryPlane;
        inGroups        List<word> 1(symmetryPlane);
        nFaces          0;
        startFace       819;
    }
    defaultFaces
    {
        type            empty;
        inGroups        List<word> 1(empty);
        nFaces          866;
        startFace       819;
    }
    procBoundary10to3
    {
        type            processor;
        inGroups        List<word> 1(processor);
        nFaces          13;
        startFace       1685;
        matchTolerance  0.0001;
        transform       unknown;
        myProcNo        10;
        neighbProcNo    3;
    }
    procBoundary10to4
    {
        type            processor;
        inGroups        List<word> 1(processor);
        nFaces          20;
        startFace       1698;
        matchTolerance  0.0001;
        transform       unknown;
        myProcNo        10;
        neighbProcNo    4;
    }
    procBoundary10to9
    {
        type            processor;
        inGroups        List<word> 1(processor);
        nFaces          12;
        startFace       1718;
        matchTolerance  0.0001;
        transform       unknown;
        myProcNo        10;
        neighbProcNo    9;
    }
    procBoundary10to11
    {
        type            processor;
        inGroups        List<word> 1(processor);
        nFaces          19;
        startFace       1730;
        matchTolerance  0.0001;
        transform       unknown;
        myProcNo        10;
        neighbProcNo    11;
    }
    procBoundary10to16
    {
        type            processor;
        inGroups        List<word> 1(processor);
        nFaces          25;
        startFace       1749;
        matchTolerance  0.0001;
        transform       unknown;
        myProcNo        10;
        neighbProcNo    16;
    }
    procBoundary10to17
    {
        type            processor;
        inGroups        List<word> 1(processor);
        nFaces          5;
        startFace       1774;
        matchTolerance  0.0001;
        transform       unknown;
        myProcNo        10;
        neighbProcNo    17;
    }
)

// ************************************************************************* //
