/*--------------------------------*- C++ -*----------------------------------*\
  =========                 |
  \\      /  F ield         | OpenFOAM: The Open Source CFD Toolbox
   \\    /   O peration     | Website:  https://openfoam.org
    \\  /    A nd           | Version:  7
     \\/     M anipulation  |
\*---------------------------------------------------------------------------*/
FoamFile
{
    version     2.0;
    format      ascii;
    class       polyBoundaryMesh;
    location    "constant/polyMesh";
    object      boundary;
}
// * * * * * * * * * * * * * * * * * * * * * * * * * * * * * * * * * * * * * //

10
(
    inlet
    {
        type            patch;
        nFaces          0;
        startFace       822;
    }
    outlet
    {
        type            patch;
        nFaces          20;
        startFace       822;
    }
    cylinder
    {
        type            wall;
        inGroups        List<word> 1(wall);
        nFaces          0;
        startFace       842;
    }
    top
    {
        type            symmetryPlane;
        inGroups        List<word> 1(symmetryPlane);
        nFaces          0;
        startFace       842;
    }
    bottom
    {
        type            symmetryPlane;
        inGroups        List<word> 1(symmetryPlane);
        nFaces          0;
        startFace       842;
    }
    defaultFaces
    {
        type            empty;
        inGroups        List<word> 1(empty);
        nFaces          866;
        startFace       842;
    }
    procBoundary29to23
    {
        type            processor;
        inGroups        List<word> 1(processor);
        nFaces          23;
        startFace       1708;
        matchTolerance  0.0001;
        transform       unknown;
        myProcNo        29;
        neighbProcNo    23;
    }
    procBoundary29to28
    {
        type            processor;
        inGroups        List<word> 1(processor);
        nFaces          20;
        startFace       1731;
        matchTolerance  0.0001;
        transform       unknown;
        myProcNo        29;
        neighbProcNo    28;
    }
    procBoundary29to34
    {
        type            processor;
        inGroups        List<word> 1(processor);
        nFaces          3;
        startFace       1751;
        matchTolerance  0.0001;
        transform       unknown;
        myProcNo        29;
        neighbProcNo    34;
    }
    procBoundary29to35
    {
        type            processor;
        inGroups        List<word> 1(processor);
        nFaces          22;
        startFace       1754;
        matchTolerance  0.0001;
        transform       unknown;
        myProcNo        29;
        neighbProcNo    35;
    }
)

// ************************************************************************* //
