/*--------------------------------*- C++ -*----------------------------------*\
  =========                 |
  \\      /  F ield         | OpenFOAM: The Open Source CFD Toolbox
   \\    /   O peration     | Website:  https://openfoam.org
    \\  /    A nd           | Version:  7
     \\/     M anipulation  |
\*---------------------------------------------------------------------------*/
FoamFile
{
    version     2.0;
    format      ascii;
    class       polyBoundaryMesh;
    location    "constant/polyMesh";
    object      boundary;
}
// * * * * * * * * * * * * * * * * * * * * * * * * * * * * * * * * * * * * * //

10
(
    inlet
    {
        type            patch;
        nFaces          0;
        startFace       823;
    }
    outlet
    {
        type            patch;
        nFaces          0;
        startFace       823;
    }
    cylinder
    {
        type            wall;
        inGroups        List<word> 1(wall);
        nFaces          0;
        startFace       823;
    }
    top
    {
        type            symmetryPlane;
        inGroups        List<word> 1(symmetryPlane);
        nFaces          0;
        startFace       823;
    }
    bottom
    {
        type            symmetryPlane;
        inGroups        List<word> 1(symmetryPlane);
        nFaces          18;
        startFace       823;
    }
    defaultFaces
    {
        type            empty;
        inGroups        List<word> 1(empty);
        nFaces          866;
        startFace       841;
    }
    procBoundary4to3
    {
        type            processor;
        inGroups        List<word> 1(processor);
        nFaces          24;
        startFace       1707;
        matchTolerance  0.0001;
        transform       unknown;
        myProcNo        4;
        neighbProcNo    3;
    }
    procBoundary4to5
    {
        type            processor;
        inGroups        List<word> 1(processor);
        nFaces          21;
        startFace       1731;
        matchTolerance  0.0001;
        transform       unknown;
        myProcNo        4;
        neighbProcNo    5;
    }
    procBoundary4to10
    {
        type            processor;
        inGroups        List<word> 1(processor);
        nFaces          20;
        startFace       1752;
        matchTolerance  0.0001;
        transform       unknown;
        myProcNo        4;
        neighbProcNo    10;
    }
    procBoundary4to11
    {
        type            processor;
        inGroups        List<word> 1(processor);
        nFaces          3;
        startFace       1772;
        matchTolerance  0.0001;
        transform       unknown;
        myProcNo        4;
        neighbProcNo    11;
    }
)

// ************************************************************************* //
