/*--------------------------------*- C++ -*----------------------------------*\
  =========                 |
  \\      /  F ield         | OpenFOAM: The Open Source CFD Toolbox
   \\    /   O peration     | Website:  https://openfoam.org
    \\  /    A nd           | Version:  7
     \\/     M anipulation  |
\*---------------------------------------------------------------------------*/
FoamFile
{
    version     2.0;
    format      ascii;
    class       polyBoundaryMesh;
    location    "constant/polyMesh";
    object      boundary;
}
// * * * * * * * * * * * * * * * * * * * * * * * * * * * * * * * * * * * * * //

16
(
    inlet
    {
        type            patch;
        nFaces          0;
        startFace       109;
    }
    outlet
    {
        type            patch;
        nFaces          0;
        startFace       109;
    }
    walls
    {
        type            wall;
        inGroups        List<word> 1(wall);
        nFaces          0;
        startFace       109;
    }
    wedge1
    {
        type            wedge;
        inGroups        List<word> 1(wedge);
        nFaces          0;
        startFace       109;
    }
    wedge2
    {
        type            wedge;
        inGroups        List<word> 1(wedge);
        nFaces          0;
        startFace       109;
    }
    wedge3
    {
        type            wedge;
        inGroups        List<word> 1(wedge);
        nFaces          49;
        startFace       109;
    }
    wedge4
    {
        type            wedge;
        inGroups        List<word> 1(wedge);
        nFaces          49;
        startFace       158;
    }
    wedge5
    {
        type            wedge;
        inGroups        List<word> 1(wedge);
        nFaces          16;
        startFace       207;
    }
    wedge6
    {
        type            wedge;
        inGroups        List<word> 1(wedge);
        nFaces          16;
        startFace       223;
    }
    empty
    {
        type            patch;
        nFaces          0;
        startFace       239;
    }
    procBoundary33to16
    {
        type            processor;
        inGroups        List<word> 1(processor);
        nFaces          1;
        startFace       239;
        matchTolerance  0.0001;
        transform       unknown;
        myProcNo        33;
        neighbProcNo    16;
    }
    procBoundary33to22
    {
        type            processor;
        inGroups        List<word> 1(processor);
        nFaces          3;
        startFace       240;
        matchTolerance  0.0001;
        transform       unknown;
        myProcNo        33;
        neighbProcNo    22;
    }
    procBoundary33to27
    {
        type            processor;
        inGroups        List<word> 1(processor);
        nFaces          17;
        startFace       243;
        matchTolerance  0.0001;
        transform       unknown;
        myProcNo        33;
        neighbProcNo    27;
    }
    procBoundary33to32
    {
        type            processor;
        inGroups        List<word> 1(processor);
        nFaces          3;
        startFace       260;
        matchTolerance  0.0001;
        transform       unknown;
        myProcNo        33;
        neighbProcNo    32;
    }
    procBoundary33to38
    {
        type            processor;
        inGroups        List<word> 1(processor);
        nFaces          1;
        startFace       263;
        matchTolerance  0.0001;
        transform       unknown;
        myProcNo        33;
        neighbProcNo    38;
    }
    procBoundary33to39
    {
        type            processor;
        inGroups        List<word> 1(processor);
        nFaces          17;
        startFace       264;
        matchTolerance  0.0001;
        transform       unknown;
        myProcNo        33;
        neighbProcNo    39;
    }
)

// ************************************************************************* //
