/*--------------------------------*- C++ -*----------------------------------*\
  =========                 |
  \\      /  F ield         | OpenFOAM: The Open Source CFD Toolbox
   \\    /   O peration     | Website:  https://openfoam.org
    \\  /    A nd           | Version:  7
     \\/     M anipulation  |
\*---------------------------------------------------------------------------*/
FoamFile
{
    version     2.0;
    format      ascii;
    class       polyBoundaryMesh;
    location    "constant/polyMesh";
    object      boundary;
}
// * * * * * * * * * * * * * * * * * * * * * * * * * * * * * * * * * * * * * //

14
(
    inlet
    {
        type            patch;
        nFaces          0;
        startFace       113;
    }
    outlet
    {
        type            patch;
        nFaces          6;
        startFace       113;
    }
    walls
    {
        type            wall;
        inGroups        List<word> 1(wall);
        nFaces          0;
        startFace       119;
    }
    wedge1
    {
        type            wedge;
        inGroups        List<word> 1(wedge);
        nFaces          0;
        startFace       119;
    }
    wedge2
    {
        type            wedge;
        inGroups        List<word> 1(wedge);
        nFaces          0;
        startFace       119;
    }
    wedge3
    {
        type            wedge;
        inGroups        List<word> 1(wedge);
        nFaces          0;
        startFace       119;
    }
    wedge4
    {
        type            wedge;
        inGroups        List<word> 1(wedge);
        nFaces          0;
        startFace       119;
    }
    wedge5
    {
        type            wedge;
        inGroups        List<word> 1(wedge);
        nFaces          65;
        startFace       119;
    }
    wedge6
    {
        type            wedge;
        inGroups        List<word> 1(wedge);
        nFaces          65;
        startFace       184;
    }
    empty
    {
        type            patch;
        nFaces          0;
        startFace       249;
    }
    procBoundary35to28
    {
        type            processor;
        inGroups        List<word> 1(processor);
        nFaces          1;
        startFace       249;
        matchTolerance  0.0001;
        transform       unknown;
        myProcNo        35;
        neighbProcNo    28;
    }
    procBoundary35to29
    {
        type            processor;
        inGroups        List<word> 1(processor);
        nFaces          10;
        startFace       250;
        matchTolerance  0.0001;
        transform       unknown;
        myProcNo        35;
        neighbProcNo    29;
    }
    procBoundary35to34
    {
        type            processor;
        inGroups        List<word> 1(processor);
        nFaces          6;
        startFace       260;
        matchTolerance  0.0001;
        transform       unknown;
        myProcNo        35;
        neighbProcNo    34;
    }
    procBoundary35to41
    {
        type            processor;
        inGroups        List<word> 1(processor);
        nFaces          11;
        startFace       266;
        matchTolerance  0.0001;
        transform       unknown;
        myProcNo        35;
        neighbProcNo    41;
    }
)

// ************************************************************************* //
