/*--------------------------------*- C++ -*----------------------------------*\
  =========                 |
  \\      /  F ield         | OpenFOAM: The Open Source CFD Toolbox
   \\    /   O peration     | Website:  https://openfoam.org
    \\  /    A nd           | Version:  7
     \\/     M anipulation  |
\*---------------------------------------------------------------------------*/
FoamFile
{
    version     2.0;
    format      ascii;
    class       polyBoundaryMesh;
    location    "constant/polyMesh";
    object      boundary;
}
// * * * * * * * * * * * * * * * * * * * * * * * * * * * * * * * * * * * * * //

10
(
    inlet
    {
        type            patch;
        nFaces          0;
        startFace       616;
    }
    outlet
    {
        type            patch;
        nFaces          0;
        startFace       616;
    }
    wall
    {
        type            wall;
        inGroups        List<word> 1(wall);
        nFaces          5;
        startFace       616;
    }
    wedge1
    {
        type            wedge;
        inGroups        List<word> 1(wedge);
        nFaces          344;
        startFace       621;
    }
    wedge2
    {
        type            wedge;
        inGroups        List<word> 1(wedge);
        nFaces          344;
        startFace       965;
    }
    axis
    {
        type            empty;
        inGroups        List<word> 1(empty);
        nFaces          0;
        startFace       1309;
    }
    procBoundary27to21
    {
        type            processor;
        inGroups        List<word> 1(processor);
        nFaces          67;
        startFace       1309;
        matchTolerance  0.0001;
        transform       unknown;
        myProcNo        27;
        neighbProcNo    21;
    }
    procBoundary27to22
    {
        type            processor;
        inGroups        List<word> 1(processor);
        nFaces          1;
        startFace       1376;
        matchTolerance  0.0001;
        transform       unknown;
        myProcNo        27;
        neighbProcNo    22;
    }
    procBoundary27to28
    {
        type            processor;
        inGroups        List<word> 1(processor);
        nFaces          4;
        startFace       1377;
        matchTolerance  0.0001;
        transform       unknown;
        myProcNo        27;
        neighbProcNo    28;
    }
    procBoundary27to33
    {
        type            processor;
        inGroups        List<word> 1(processor);
        nFaces          67;
        startFace       1381;
        matchTolerance  0.0001;
        transform       unknown;
        myProcNo        27;
        neighbProcNo    33;
    }
)

// ************************************************************************* //
