/*--------------------------------*- C++ -*----------------------------------*\
  =========                 |
  \\      /  F ield         | OpenFOAM: The Open Source CFD Toolbox
   \\    /   O peration     | Website:  https://openfoam.org
    \\  /    A nd           | Version:  7
     \\/     M anipulation  |
\*---------------------------------------------------------------------------*/
FoamFile
{
    version     2.0;
    format      ascii;
    class       polyBoundaryMesh;
    location    "constant/polyMesh";
    object      boundary;
}
// * * * * * * * * * * * * * * * * * * * * * * * * * * * * * * * * * * * * * //

12
(
    inlet
    {
        type            patch;
        nFaces          0;
        startFace       615;
    }
    outlet
    {
        type            patch;
        nFaces          0;
        startFace       615;
    }
    wall
    {
        type            wall;
        inGroups        List<word> 1(wall);
        nFaces          0;
        startFace       615;
    }
    wedge1
    {
        type            wedge;
        inGroups        List<word> 1(wedge);
        nFaces          344;
        startFace       615;
    }
    wedge2
    {
        type            wedge;
        inGroups        List<word> 1(wedge);
        nFaces          344;
        startFace       959;
    }
    axis
    {
        type            empty;
        inGroups        List<word> 1(empty);
        nFaces          0;
        startFace       1303;
    }
    procBoundary40to34
    {
        type            processor;
        inGroups        List<word> 1(processor);
        nFaces          68;
        startFace       1303;
        matchTolerance  0.0001;
        transform       unknown;
        myProcNo        40;
        neighbProcNo    34;
    }
    procBoundary40to35
    {
        type            processor;
        inGroups        List<word> 1(processor);
        nFaces          1;
        startFace       1371;
        matchTolerance  0.0001;
        transform       unknown;
        myProcNo        40;
        neighbProcNo    35;
    }
    procBoundary40to39
    {
        type            processor;
        inGroups        List<word> 1(processor);
        nFaces          4;
        startFace       1372;
        matchTolerance  0.0001;
        transform       unknown;
        myProcNo        40;
        neighbProcNo    39;
    }
    procBoundary40to41
    {
        type            processor;
        inGroups        List<word> 1(processor);
        nFaces          4;
        startFace       1376;
        matchTolerance  0.0001;
        transform       unknown;
        myProcNo        40;
        neighbProcNo    41;
    }
    procBoundary40to45
    {
        type            processor;
        inGroups        List<word> 1(processor);
        nFaces          1;
        startFace       1380;
        matchTolerance  0.0001;
        transform       unknown;
        myProcNo        40;
        neighbProcNo    45;
    }
    procBoundary40to46
    {
        type            processor;
        inGroups        List<word> 1(processor);
        nFaces          68;
        startFace       1381;
        matchTolerance  0.0001;
        transform       unknown;
        myProcNo        40;
        neighbProcNo    46;
    }
)

// ************************************************************************* //
