/*--------------------------------*- C++ -*----------------------------------*\
  =========                 |
  \\      /  F ield         | OpenFOAM: The Open Source CFD Toolbox
   \\    /   O peration     | Website:  https://openfoam.org
    \\  /    A nd           | Version:  7
     \\/     M anipulation  |
\*---------------------------------------------------------------------------*/
FoamFile
{
    version     2.0;
    format      ascii;
    class       polyBoundaryMesh;
    location    "constant/polyMesh";
    object      boundary;
}
// * * * * * * * * * * * * * * * * * * * * * * * * * * * * * * * * * * * * * //

15
(
    inlet
    {
        type            patch;
        nFaces          0;
        startFace       108;
    }
    outlet
    {
        type            patch;
        nFaces          0;
        startFace       108;
    }
    walls
    {
        type            wall;
        inGroups        List<word> 1(wall);
        nFaces          0;
        startFace       108;
    }
    wedge1
    {
        type            wedge;
        inGroups        List<word> 1(wedge);
        nFaces          16;
        startFace       108;
    }
    wedge2
    {
        type            wedge;
        inGroups        List<word> 1(wedge);
        nFaces          16;
        startFace       124;
    }
    wedge3
    {
        type            wedge;
        inGroups        List<word> 1(wedge);
        nFaces          49;
        startFace       140;
    }
    wedge4
    {
        type            wedge;
        inGroups        List<word> 1(wedge);
        nFaces          49;
        startFace       189;
    }
    wedge5
    {
        type            wedge;
        inGroups        List<word> 1(wedge);
        nFaces          0;
        startFace       238;
    }
    wedge6
    {
        type            wedge;
        inGroups        List<word> 1(wedge);
        nFaces          0;
        startFace       238;
    }
    empty
    {
        type            patch;
        nFaces          0;
        startFace       238;
    }
    procBoundary32to19
    {
        type            processor;
        inGroups        List<word> 1(processor);
        nFaces          4;
        startFace       238;
        matchTolerance  0.0001;
        transform       unknown;
        myProcNo        32;
        neighbProcNo    19;
    }
    procBoundary32to26
    {
        type            processor;
        inGroups        List<word> 1(processor);
        nFaces          18;
        startFace       242;
        matchTolerance  0.0001;
        transform       unknown;
        myProcNo        32;
        neighbProcNo    26;
    }
    procBoundary32to27
    {
        type            processor;
        inGroups        List<word> 1(processor);
        nFaces          1;
        startFace       260;
        matchTolerance  0.0001;
        transform       unknown;
        myProcNo        32;
        neighbProcNo    27;
    }
    procBoundary32to33
    {
        type            processor;
        inGroups        List<word> 1(processor);
        nFaces          3;
        startFace       261;
        matchTolerance  0.0001;
        transform       unknown;
        myProcNo        32;
        neighbProcNo    33;
    }
    procBoundary32to38
    {
        type            processor;
        inGroups        List<word> 1(processor);
        nFaces          18;
        startFace       264;
        matchTolerance  0.0001;
        transform       unknown;
        myProcNo        32;
        neighbProcNo    38;
    }
)

// ************************************************************************* //
