/*--------------------------------*- C++ -*----------------------------------*\
  =========                 |
  \\      /  F ield         | OpenFOAM: The Open Source CFD Toolbox
   \\    /   O peration     | Website:  https://openfoam.org
    \\  /    A nd           | Version:  7
     \\/     M anipulation  |
\*---------------------------------------------------------------------------*/
FoamFile
{
    version     2.0;
    format      ascii;
    class       polyBoundaryMesh;
    location    "constant/polyMesh";
    object      boundary;
}
// * * * * * * * * * * * * * * * * * * * * * * * * * * * * * * * * * * * * * //

13
(
    inlet
    {
        type            patch;
        nFaces          0;
        startFace       112;
    }
    outlet
    {
        type            patch;
        nFaces          0;
        startFace       112;
    }
    walls
    {
        type            wall;
        inGroups        List<word> 1(wall);
        nFaces          10;
        startFace       112;
    }
    wedge1
    {
        type            wedge;
        inGroups        List<word> 1(wedge);
        nFaces          0;
        startFace       122;
    }
    wedge2
    {
        type            wedge;
        inGroups        List<word> 1(wedge);
        nFaces          0;
        startFace       122;
    }
    wedge3
    {
        type            wedge;
        inGroups        List<word> 1(wedge);
        nFaces          0;
        startFace       122;
    }
    wedge4
    {
        type            wedge;
        inGroups        List<word> 1(wedge);
        nFaces          0;
        startFace       122;
    }
    wedge5
    {
        type            wedge;
        inGroups        List<word> 1(wedge);
        nFaces          65;
        startFace       122;
    }
    wedge6
    {
        type            wedge;
        inGroups        List<word> 1(wedge);
        nFaces          65;
        startFace       187;
    }
    empty
    {
        type            patch;
        nFaces          0;
        startFace       252;
    }
    procBoundary46to40
    {
        type            processor;
        inGroups        List<word> 1(processor);
        nFaces          12;
        startFace       252;
        matchTolerance  0.0001;
        transform       unknown;
        myProcNo        46;
        neighbProcNo    40;
    }
    procBoundary46to45
    {
        type            processor;
        inGroups        List<word> 1(processor);
        nFaces          7;
        startFace       264;
        matchTolerance  0.0001;
        transform       unknown;
        myProcNo        46;
        neighbProcNo    45;
    }
    procBoundary46to47
    {
        type            processor;
        inGroups        List<word> 1(processor);
        nFaces          7;
        startFace       271;
        matchTolerance  0.0001;
        transform       unknown;
        myProcNo        46;
        neighbProcNo    47;
    }
)

// ************************************************************************* //
